<?xml version="1.0" ?>
<nodes version="0.27" xmlns:xsi="http://www.w3.org/2001/XMLSchema-instance" xsi:noNamespaceSchemaLocation="http://sumo.dlr.de/xsd/nodes_file.xsd">
   
    
   <location convBoundary="0.00,0.00,3395.30,2655.86" netOffset="-265899.13,-5037825.54" origBoundary="12.005467,45.452393,12.064903,45.479234" projParameter="+proj=utm +zone=33 +ellps=WGS84 +datum=WGS84 +units=m +no_defs"/>
   

    
   <node id="1559454426" type="priority" x="1961.34" y="2640.60"/>
   
    
   <node id="206231053" type="priority" x="1965.12" y="2655.86"/>
   
    
   <node id="262573149" type="priority" x="1346.83" y="620.60"/>
   
    
   <node id="3993684186" type="priority" x="0.00" y="1029.38"/>
   
    
   <node id="404731154" type="priority" x="1757.60" y="1977.57"/>
   
    
   <node id="408455094" type="priority" x="2023.80" y="415.68"/>
   
    
   <node id="408560470" type="priority" x="3395.30" y="0.00"/>
   
    
   <node id="408560490" type="priority" x="1377.34" y="612.82"/>
   
    
   <node id="410163861" type="priority" x="1168.64" y="52.04"/>
   

</nodes>
