<?xml version="1.0" encoding="UTF-8"?>

<!-- generated on Thu Jun 13 21:59:57 2019 by Eclipse SUMO netconvert Version 1.2.0
<configuration xmlns:xsi="http://www.w3.org/2001/XMLSchema-instance" xsi:noNamespaceSchemaLocation="http://sumo.dlr.de/xsd/netconvertConfiguration.xsd">

    <input>
        <sumo-net-file value="milan.net.xml"/>
    </input>

    <output>
        <plain-output-prefix value="milan"/>
    </output>

    <processing>
        <geometry.max-grade.fix value="false"/>
        <offset.disable-normalization value="true"/>
        <lefthand value="false"/>
    </processing>

    <junctions>
        <no-turnarounds value="true"/>
        <junctions.corner-detail value="5"/>
        <junctions.limit-turn-speed value="5.5"/>
        <rectangular-lane-cut value="false"/>
    </junctions>

    <pedestrian>
        <walkingareas value="false"/>
    </pedestrian>

</configuration>
-->

<edges version="1.1" xmlns:xsi="http://www.w3.org/2001/XMLSchema-instance" xsi:noNamespaceSchemaLocation="http://sumo.dlr.de/xsd/edges_file.xsd">
    <edge id="-138712501#0" from="282181754" to="1834247929" priority="4" type="highway.unclassified" numLanes="1" speed="13.89" disallow="tram rail_urban rail rail_electric ship"/>
    <edge id="-138712501#1" from="5250510695" to="282181754" priority="4" type="highway.unclassified" numLanes="1" speed="13.89" disallow="tram rail_urban rail rail_electric ship"/>
    <edge id="-138712501#2" from="2471413173" to="5250510695" priority="4" type="highway.unclassified" numLanes="1" speed="13.89" disallow="tram rail_urban rail rail_electric ship"/>
    <edge id="-142387176" from="1479183769" to="251292739" priority="3" type="highway.residential" numLanes="1" speed="13.89" shape="2532.41,1030.46 2540.92,1033.23 2546.37,1034.12 2566.92,1036.65 2581.03,1038.57 2589.63,1039.49" disallow="tram rail_urban rail rail_electric ship"/>
    <edge id="-145593783#0" from="35081008" to="251293045" priority="3" type="highway.residential" numLanes="1" speed="13.89" disallow="tram rail_urban rail rail_electric ship"/>
    <edge id="-145593783#1" from="251899319" to="35081008" priority="3" type="highway.residential" numLanes="1" speed="13.89" disallow="tram rail_urban rail rail_electric ship"/>
    <edge id="-145593783#2" from="1855779400" to="251899319" priority="3" type="highway.residential" numLanes="1" speed="13.89" disallow="tram rail_urban rail rail_electric ship"/>
    <edge id="-145593783#3" from="1855712465" to="1855779400" priority="3" type="highway.residential" numLanes="1" speed="13.89" shape="2783.55,1203.79 2787.19,1208.06 2790.39,1213.04" disallow="tram rail_urban rail rail_electric ship"/>
    <edge id="-147972360#0" from="1831015834" to="31348010" priority="1" type="highway.service" numLanes="1" speed="5.56" allow="delivery bicycle pedestrian"/>
    <edge id="-147972360#1" from="1930606339" to="1831015834" priority="1" type="highway.service" numLanes="1" speed="5.56" allow="delivery bicycle pedestrian"/>
    <edge id="-148358570#0" from="1855044031" to="5359556421" priority="3" type="highway.residential" numLanes="1" speed="13.89" disallow="tram rail_urban rail rail_electric ship"/>
    <edge id="-148358570#1" from="251292755" to="1855044031" priority="3" type="highway.residential" numLanes="1" speed="13.89" disallow="tram rail_urban rail rail_electric ship"/>
    <edge id="-148358576#0" from="1479128988" to="1930595994" priority="4" type="highway.unclassified" numLanes="1" speed="13.89" disallow="tram rail_urban rail rail_electric ship"/>
    <edge id="-148358576#1" from="259980981" to="1479128988" priority="4" type="highway.unclassified" numLanes="1" speed="13.89" disallow="tram rail_urban rail rail_electric ship"/>
    <edge id="-149762814" from="303383874" to="303383887" priority="1" type="highway.service" numLanes="1" speed="5.56" shape="2940.57,1088.50 2911.19,1044.33 2871.04,991.36" allow="delivery bicycle pedestrian"/>
    <edge id="-161126640#0" from="5068578105" to="531580221" priority="3" type="highway.residential" numLanes="1" speed="13.89" disallow="tram rail_urban rail rail_electric ship"/>
    <edge id="-161126640#1" from="5068578104" to="5068578105" priority="3" type="highway.residential" numLanes="1" speed="13.89" disallow="tram rail_urban rail rail_electric ship"/>
    <edge id="-161126640#2" from="251755100" to="5068578104" priority="3" type="highway.residential" numLanes="1" speed="13.89" shape="5043.88,1380.64 5039.18,1387.30 5035.48,1392.50" disallow="tram rail_urban rail rail_electric ship"/>
    <edge id="-161126647#0" from="2610501077" to="27551117" priority="11" type="highway.secondary" numLanes="2" speed="27.78" disallow="tram rail_urban rail rail_electric ship"/>
    <edge id="-161126647#1" from="2788502420" to="2610501077" priority="11" type="highway.secondary" numLanes="2" speed="27.78" disallow="tram rail_urban rail rail_electric ship"/>
    <edge id="-161786093#0" from="1831015808" to="442028931" priority="4" type="highway.unclassified" numLanes="1" speed="13.89" disallow="tram rail_urban rail rail_electric ship"/>
    <edge id="-161786093#1" from="21226841" to="1831015808" priority="4" type="highway.unclassified" numLanes="1" speed="13.89" disallow="tram rail_urban rail rail_electric ship"/>
    <edge id="-161786113#0" from="1822701341" to="2699755118" priority="11" type="highway.secondary" numLanes="2" speed="27.78" disallow="tram rail_urban rail rail_electric ship"/>
    <edge id="-161786113#1" from="3698850090" to="1822701341" priority="11" type="highway.secondary" numLanes="2" speed="27.78" disallow="tram rail_urban rail rail_electric ship"/>
    <edge id="-161786113#2" from="205742369" to="3698850090" priority="11" type="highway.secondary" numLanes="2" speed="27.78" disallow="tram rail_urban rail rail_electric ship"/>
    <edge id="-161826809#0" from="1478966703" to="114306901" priority="11" type="highway.secondary" numLanes="2" speed="27.78" disallow="tram rail_urban rail rail_electric ship"/>
    <edge id="-161826809#1" from="1931339543" to="1478966703" priority="11" type="highway.secondary" numLanes="2" speed="27.78" disallow="tram rail_urban rail rail_electric ship"/>
    <edge id="-162797936" from="2535076404" to="21225903" priority="4" type="highway.unclassified" numLanes="1" speed="13.89" shape="3869.97,1566.32 3870.17,1550.14 3870.33,1539.40" disallow="tram rail_urban rail rail_electric ship"/>
    <edge id="-162797937" from="2535072394" to="1746151203" priority="4" type="highway.unclassified" numLanes="1" speed="13.89" disallow="tram rail_urban rail rail_electric ship"/>
    <edge id="-162797940#0" from="1831015840" to="21225900" priority="3" type="highway.residential" numLanes="1" speed="13.89" disallow="tram rail_urban rail rail_electric ship"/>
    <edge id="-162797940#1" from="258002853" to="1831015840" priority="3" type="highway.residential" numLanes="1" speed="13.89" disallow="tram rail_urban rail rail_electric ship"/>
    <edge id="-162797944" from="31013218" to="2535076404" priority="4" type="highway.unclassified" numLanes="1" speed="13.89" shape="3868.39,1652.14 3868.63,1644.15 3869.97,1566.32" disallow="tram rail_urban rail rail_electric ship"/>
    <edge id="-162797945" from="258001420" to="258002853" priority="3" type="highway.residential" numLanes="1" speed="13.89" shape="3879.05,1071.90 3879.15,1063.70 3881.00,930.73 3881.09,923.92" disallow="tram rail_urban rail rail_electric ship"/>
    <edge id="-162797951" from="252237087" to="232852364" priority="4" type="highway.unclassified" numLanes="1" speed="13.89" shape="4142.78,1656.62 4142.85,1647.70 4143.59,1553.05 4143.66,1543.72" disallow="tram rail_urban rail rail_electric ship"/>
    <edge id="-162797952#0" from="2535768580" to="3752997851" priority="4" type="highway.unclassified" numLanes="1" speed="13.89" disallow="tram rail_urban rail rail_electric ship"/>
    <edge id="-162797952#1" from="258174467" to="2535768580" priority="4" type="highway.unclassified" numLanes="1" speed="13.89" disallow="tram rail_urban rail rail_electric ship"/>
    <edge id="-162797953" from="1746151193" to="1746151189" priority="1" type="highway.service" numLanes="1" speed="5.56" shape="4026.82,1362.35 4026.88,1359.66 4027.45,1335.68 4027.51,1333.39" allow="delivery bicycle pedestrian"/>
    <edge id="-164070459" from="1757299029" to="1757298964" priority="1" type="highway.service" numLanes="1" speed="5.56" shape="3129.55,936.22 3127.58,906.14 3126.09,895.05" allow="delivery bicycle pedestrian"/>
    <edge id="-164632187#0" from="560982641" to="21226464" priority="4" type="highway.unclassified" numLanes="1" speed="13.89" disallow="tram rail_urban rail rail_electric ship"/>
    <edge id="-164632187#1" from="1930595994" to="560982641" priority="4" type="highway.unclassified" numLanes="1" speed="13.89" disallow="tram rail_urban rail rail_electric ship"/>
    <edge id="-164632188" from="1762448441" to="259980979" priority="1" type="highway.service" numLanes="1" speed="5.56" allow="delivery bicycle pedestrian"/>
    <edge id="-164701842#0" from="2700537621" to="259981068" priority="4" type="highway.unclassified" numLanes="1" speed="13.89" disallow="tram rail_urban rail rail_electric ship"/>
    <edge id="-164701842#1" from="21227233" to="2700537621" priority="4" type="highway.unclassified" numLanes="1" speed="13.89" disallow="tram rail_urban rail rail_electric ship"/>
    <edge id="-164701844#0" from="1831279284" to="29797369" priority="3" type="highway.residential" numLanes="1" speed="13.89" disallow="tram rail_urban rail rail_electric ship"/>
    <edge id="-164701844#1" from="1831279290" to="1831279284" priority="3" type="highway.residential" numLanes="1" speed="13.89" disallow="tram rail_urban rail rail_electric ship"/>
    <edge id="-164701844#2" from="21226354" to="1831279290" priority="3" type="highway.residential" numLanes="1" speed="13.89" disallow="tram rail_urban rail rail_electric ship"/>
    <edge id="-166616180#0" from="1780527836" to="1780527820" priority="4" type="highway.unclassified" numLanes="1" speed="13.89" disallow="tram rail_urban rail rail_electric ship"/>
    <edge id="-166616180#1" from="31013216" to="1780527836" priority="4" type="highway.unclassified" numLanes="1" speed="13.89" disallow="tram rail_urban rail rail_electric ship"/>
    <edge id="-166623706#0" from="1831015938" to="1780606150" priority="1" type="highway.service" numLanes="1" speed="5.56" shape="3792.39,1804.19 3789.56,1804.16 3786.45,1804.13" allow="delivery bicycle pedestrian"/>
    <edge id="-166623706#1" from="1780606152" to="1831015938" priority="1" type="highway.service" numLanes="1" speed="5.56" shape="3814.72,1804.41 3796.97,1804.23 3792.39,1804.19" allow="delivery bicycle pedestrian"/>
    <edge id="-168734407" from="1479162081" to="27552403" priority="11" type="highway.secondary" numLanes="2" speed="27.78" disallow="tram rail_urban rail rail_electric ship"/>
    <edge id="-168773897#0" from="1855712507" to="35080844" priority="3" type="highway.residential" numLanes="1" speed="13.89" disallow="tram rail_urban rail rail_electric ship"/>
    <edge id="-168773897#1" from="27654246" to="1855712507" priority="3" type="highway.residential" numLanes="1" speed="13.89" disallow="tram rail_urban rail rail_electric ship"/>
    <edge id="-171201469#0" from="1822701299" to="1822701304" priority="1" type="highway.cycleway" numLanes="1" speed="8.33" width="1.00" allow="bicycle"/>
    <edge id="-171201469#1" from="4409320994" to="1822701299" priority="1" type="highway.cycleway" numLanes="1" speed="8.33" width="1.00" allow="bicycle"/>
    <edge id="-171201469#2" from="1822701295" to="4409320994" priority="1" type="highway.cycleway" numLanes="1" speed="8.33" width="1.00" allow="bicycle"/>
    <edge id="-171201472#0" from="1822701348" to="1822701326" priority="1" type="highway.cycleway" numLanes="1" speed="8.33" shape="5035.14,611.06 4918.20,611.22 4902.22,605.36 4892.36,605.55" width="1.00" allow="bicycle"/>
    <edge id="-171201472#1" from="2916981416" to="1822701348" priority="1" type="highway.cycleway" numLanes="1" speed="8.33" shape="5340.85,611.01 5268.03,611.34 5035.14,611.06" width="1.00" allow="bicycle"/>
    <edge id="-171201475#0" from="4409321004" to="4409321003" priority="1" type="highway.service" numLanes="1" speed="5.56" allow="delivery bicycle pedestrian"/>
    <edge id="-171201475#1" from="1822701299" to="4409321004" priority="1" type="highway.service" numLanes="1" speed="5.56" shape="4695.46,422.79 4691.93,422.76 4679.36,422.62" allow="delivery bicycle pedestrian"/>
    <edge id="-171201475#2" from="1822701301" to="1822701299" priority="1" type="highway.service" numLanes="1" speed="5.56" allow="delivery bicycle pedestrian"/>
    <edge id="-171463472#0" from="2951299746" to="1824860699" priority="1" type="highway.cycleway" numLanes="1" speed="8.33" width="1.00" allow="bicycle"/>
    <edge id="-171463472#1" from="1824860700" to="2951299746" priority="1" type="highway.cycleway" numLanes="1" speed="8.33" width="1.00" allow="bicycle"/>
    <edge id="-171463472#2" from="354988210" to="1824860700" priority="1" type="highway.cycleway" numLanes="1" speed="8.33" shape="4798.08,1511.55 4784.10,1519.93 4778.15,1520.81" width="1.00" allow="bicycle"/>
    <edge id="-171463472#3" from="4525093486" to="354988210" priority="1" type="highway.cycleway" numLanes="1" speed="8.33" width="1.00" allow="bicycle"/>
    <edge id="-171463472#4" from="1824860697" to="4525093486" priority="1" type="highway.cycleway" numLanes="1" speed="8.33" width="1.00" allow="bicycle"/>
    <edge id="-171463472#5" from="354988198" to="1824860697" priority="1" type="highway.cycleway" numLanes="1" speed="8.33" width="1.00" allow="bicycle"/>
    <edge id="-171463472#6" from="1521051490" to="354988198" priority="1" type="highway.cycleway" numLanes="1" speed="8.33" width="1.00" allow="bicycle"/>
    <edge id="-171951782#0" from="2614043428" to="259980981" priority="4" type="highway.unclassified" numLanes="1" speed="13.89" disallow="tram rail_urban rail rail_electric ship"/>
    <edge id="-171951782#1" from="2411169387" to="2614043428" priority="4" type="highway.unclassified" numLanes="1" speed="13.89" disallow="tram rail_urban rail rail_electric ship"/>
    <edge id="-171951783#0" from="567856076" to="2411169387" priority="4" type="highway.unclassified" numLanes="1" speed="13.89" disallow="tram rail_urban rail rail_electric ship"/>
    <edge id="-171951783#1" from="3781806459" to="567856076" priority="4" type="highway.unclassified" numLanes="1" speed="13.89" disallow="tram rail_urban rail rail_electric ship"/>
    <edge id="-172253739#0" from="1831777974" to="1831777965" priority="1" type="highway.service" numLanes="1" speed="5.56" allow="delivery bicycle pedestrian"/>
    <edge id="-172253739#1" from="2222368744" to="1831777974" priority="1" type="highway.service" numLanes="1" speed="5.56" allow="delivery bicycle pedestrian"/>
    <edge id="-172253739#2" from="1831777949" to="2222368744" priority="1" type="highway.service" numLanes="1" speed="5.56" allow="delivery bicycle pedestrian"/>
    <edge id="-172708667" from="244300359" to="244300357" priority="3" type="highway.residential" numLanes="1" speed="13.89" shape="4607.68,1281.21 4606.67,1329.62 4606.83,1363.23 4606.84,1366.14 4606.87,1372.37" disallow="tram rail_urban rail rail_electric ship"/>
    <edge id="-172819166#0" from="3877994118" to="1584826241" priority="3" type="highway.residential" numLanes="1" speed="13.89" disallow="tram rail_urban rail rail_electric ship"/>
    <edge id="-172819166#1" from="2782354234" to="3877994118" priority="3" type="highway.residential" numLanes="1" speed="13.89" shape="2468.71,1800.90 2462.68,1792.03 2434.57,1752.68 2429.61,1745.51" disallow="tram rail_urban rail rail_electric ship"/>
    <edge id="-173087835#0" from="569104832" to="353193611" priority="3" type="highway.residential" numLanes="1" speed="13.89" disallow="tram rail_urban rail rail_electric ship"/>
    <edge id="-173087835#1" from="258168369" to="569104832" priority="3" type="highway.residential" numLanes="1" speed="13.89" shape="4677.27,876.80 4677.24,883.55 4677.12,917.94" disallow="tram rail_urban rail rail_electric ship"/>
    <edge id="-181919709" from="1612276275" to="29797373" priority="4" type="highway.unclassified" numLanes="1" speed="13.89" disallow="tram rail_urban rail rail_electric ship"/>
    <edge id="-182702311#0" from="3730817347" to="1930595994" priority="1" type="highway.service" numLanes="1" speed="5.56" allow="delivery bicycle pedestrian"/>
    <edge id="-182702311#1" from="1930595993" to="3730817347" priority="1" type="highway.service" numLanes="1" speed="5.56" allow="delivery bicycle pedestrian"/>
    <edge id="-182703533" from="2810947675" to="1930606339" priority="1" type="highway.service" numLanes="1" speed="5.56" allow="delivery bicycle pedestrian"/>
    <edge id="-182703534" from="2810719944" to="1930606315" priority="1" type="highway.service" numLanes="1" speed="5.56" allow="delivery bicycle pedestrian"/>
    <edge id="-182781114#0" from="3700394832" to="1931339544" priority="1" type="highway.service" numLanes="1" speed="5.56" allow="delivery bicycle pedestrian"/>
    <edge id="-182781114#1" from="2701090473" to="3700394832" priority="1" type="highway.service" numLanes="1" speed="5.56" allow="delivery bicycle pedestrian"/>
    <edge id="-182781116" from="1931339543" to="1931339542" priority="1" type="highway.service" numLanes="1" speed="5.56" allow="delivery bicycle pedestrian"/>
    <edge id="-183876912" from="2925717078" to="1942907893" priority="4" type="highway.unclassified" numLanes="1" speed="13.89" disallow="tram rail_urban rail rail_electric ship"/>
    <edge id="-183897700#0" from="1822701290" to="1478974809" priority="4" type="highway.unclassified" numLanes="1" speed="13.89" disallow="tram rail_urban rail rail_electric ship"/>
    <edge id="-183897700#1" from="2699755109" to="1822701290" priority="4" type="highway.unclassified" numLanes="1" speed="13.89" disallow="tram rail_urban rail rail_electric ship"/>
    <edge id="-189272421#0" from="6305949348" to="1930611236" priority="1" type="highway.service" numLanes="1" speed="5.56" shape="2849.74,894.55 2856.98,889.99 2862.13,888.25" allow="delivery bicycle pedestrian"/>
    <edge id="-189272421#1" from="1930611235" to="6305949348" priority="1" type="highway.service" numLanes="1" speed="5.56" shape="2843.47,898.95 2846.69,896.53 2849.74,894.55" allow="delivery bicycle pedestrian"/>
    <edge id="-189272422#0" from="1999196025" to="21226268" priority="1" type="highway.service" numLanes="1" speed="5.56" allow="delivery bicycle pedestrian"/>
    <edge id="-189272422#1" from="1999196029" to="1999196025" priority="1" type="highway.service" numLanes="1" speed="5.56" allow="delivery bicycle pedestrian"/>
    <edge id="-189272429" from="1999196034" to="1999196029" priority="1" type="highway.service" numLanes="1" speed="5.56" shape="2723.41,962.80 2743.27,962.83 2750.97,962.57" allow="delivery bicycle pedestrian"/>
    <edge id="-189272430" from="1999195997" to="1999196002" priority="1" type="highway.service" numLanes="1" speed="5.56" allow="delivery bicycle pedestrian"/>
    <edge id="-194011454#0" from="2051775615" to="2045244652" priority="3" type="highway.residential" numLanes="1" speed="13.89" disallow="tram rail_urban rail rail_electric ship"/>
    <edge id="-194011454#1" from="2045244653" to="2051775615" priority="3" type="highway.residential" numLanes="1" speed="13.89" disallow="tram rail_urban rail rail_electric ship"/>
    <edge id="-194011461" from="2045244649" to="2045244650" priority="3" type="highway.residential" numLanes="1" speed="13.89" disallow="tram rail_urban rail rail_electric ship"/>
    <edge id="-194557166" from="2050577615" to="2050577611" priority="1" type="highway.service" numLanes="1" speed="5.56" shape="3631.86,1268.64 3575.82,1252.29 3569.07,1250.28" allow="delivery bicycle pedestrian"/>
    <edge id="-203168106" from="2131476701" to="2131476703" priority="1" type="highway.service" numLanes="1" speed="5.56" shape="4221.91,1144.70 4157.51,1144.73 4143.66,1145.32" allow="delivery bicycle pedestrian"/>
    <edge id="-207295494" from="2174895442" to="3609508299" priority="3" type="highway.residential" numLanes="1" speed="13.89" shape="4432.15,1167.61 4440.32,1167.74 4497.91,1168.66" disallow="tram rail_urban rail rail_electric ship"/>
    <edge id="-207299777" from="2702631544" to="2174958251" priority="4" type="highway.unclassified" numLanes="1" speed="13.89" disallow="tram rail_urban rail rail_electric ship"/>
    <edge id="-207314268" from="2175098088" to="2175098089" priority="3" type="highway.residential" numLanes="1" speed="13.89" disallow="tram rail_urban rail rail_electric ship"/>
    <edge id="-223689684" from="2325709123" to="273098013" priority="3" type="highway.residential" numLanes="1" speed="13.89" disallow="tram rail_urban rail rail_electric ship"/>
    <edge id="-225304807" from="2340999156" to="2340999155" priority="1" type="highway.service" numLanes="1" speed="5.56" allow="delivery bicycle pedestrian"/>
    <edge id="-225304808" from="2340999158" to="2340999157" priority="1" type="highway.service" numLanes="1" speed="5.56" allow="delivery bicycle pedestrian"/>
    <edge id="-225304809" from="2340999157" to="2340999156" priority="1" type="highway.service" numLanes="1" speed="5.56" allow="delivery bicycle pedestrian"/>
    <edge id="-23227427" from="2497238688" to="27654250" priority="3" type="highway.residential" numLanes="1" speed="13.89" shape="2426.14,1387.12 2420.35,1396.48 2417.04,1399.15 2412.52,1400.49" disallow="tram rail_urban rail rail_electric ship"/>
    <edge id="-23227652#0" from="2991256520" to="251293037" priority="3" type="highway.residential" numLanes="1" speed="13.89" shape="2830.50,1258.48 2843.29,1257.69 2846.32,1257.00 2849.86,1253.92 2852.91,1249.36" disallow="tram rail_urban rail rail_electric ship"/>
    <edge id="-23227652#1" from="251293045" to="2991256520" priority="3" type="highway.residential" numLanes="1" speed="13.89" shape="2811.59,1246.45 2818.00,1255.02 2821.59,1257.65 2826.29,1258.80 2830.50,1258.48" disallow="tram rail_urban rail rail_electric ship"/>
    <edge id="-23227667" from="251293116" to="28848534" priority="3" type="highway.residential" numLanes="1" speed="13.89" shape="2977.50,1467.38 2998.90,1426.99 3001.41,1421.93 3004.03,1402.81 3004.43,1397.23" disallow="tram rail_urban rail rail_electric ship"/>
    <edge id="-23263462#0" from="3704615010" to="29765455" priority="4" type="highway.unclassified" numLanes="1" speed="13.89" shape="4977.93,1248.60 4882.90,1247.87 4876.19,1247.82" disallow="tram rail_urban rail rail_electric ship"/>
    <edge id="-23263462#1" from="305600493" to="3704615010" priority="4" type="highway.unclassified" numLanes="1" speed="13.89" shape="5070.78,1249.32 5054.36,1249.19 4977.93,1248.60" disallow="tram rail_urban rail rail_electric ship"/>
    <edge id="-233263972" from="21226174" to="1504232634" priority="4" type="highway.unclassified" numLanes="1" speed="13.89" disallow="tram rail_urban rail rail_electric ship"/>
    <edge id="-235640906" from="35080864" to="2437179669" priority="3" type="highway.residential" numLanes="1" speed="13.89" shape="2503.11,1399.39 2499.77,1399.42 2496.70,1399.04 2491.63,1397.48" disallow="tram rail_urban rail rail_electric ship"/>
    <edge id="-23820762" from="244301345" to="258174467" priority="4" type="highway.unclassified" numLanes="1" speed="13.89" shape="4144.08,1364.71 4144.07,1372.87 4143.95,1466.87 4143.93,1476.49" disallow="tram rail_urban rail rail_electric ship"/>
    <edge id="-239283965#0" from="3706755063" to="2470842250" priority="1" type="highway.service" numLanes="1" speed="5.56" allow="delivery bicycle pedestrian"/>
    <edge id="-239283965#1" from="2470842254" to="3706755063" priority="1" type="highway.service" numLanes="1" speed="5.56" allow="delivery bicycle pedestrian"/>
    <edge id="-239546828#0" from="1478974751" to="1943151426" priority="4" type="highway.unclassified" numLanes="1" speed="13.89" disallow="tram rail_urban rail rail_electric ship"/>
    <edge id="-239546828#1" from="2690418428" to="1478974751" priority="4" type="highway.unclassified" numLanes="1" speed="13.89" shape="4502.88,384.89 4502.74,372.83 4503.14,364.89" disallow="tram rail_urban rail rail_electric ship"/>
    <edge id="-239929864#0" from="2476976390" to="2476976391" priority="1" type="highway.service" numLanes="1" speed="5.56" allow="delivery bicycle pedestrian"/>
    <edge id="-239929864#1" from="2476976389" to="2476976390" priority="1" type="highway.service" numLanes="1" speed="5.56" allow="delivery bicycle pedestrian"/>
    <edge id="-239934579#0" from="6155705933" to="2477023376" priority="1" type="highway.service" numLanes="1" speed="5.56" shape="2748.26,577.52 2748.85,579.30 2750.02,581.45" allow="delivery bicycle pedestrian"/>
    <edge id="-239934579#1" from="369229560" to="6155705933" priority="1" type="highway.service" numLanes="1" speed="5.56" shape="2750.52,563.05 2748.68,567.13 2747.87,574.96 2748.26,577.52" allow="delivery bicycle pedestrian"/>
    <edge id="-240054800" from="35081106" to="2478232780" priority="4" type="highway.unclassified" numLanes="1" speed="13.89" disallow="tram rail_urban rail rail_electric ship"/>
    <edge id="-240054801" from="35081142" to="35081106" priority="3" type="highway.residential" numLanes="1" speed="13.89" shape="3149.49,1666.73 3128.14,1745.60 3126.14,1749.58 3119.13,1757.35" disallow="tram rail_urban rail rail_electric ship"/>
    <edge id="-240243318" from="2479855008" to="2479855032" priority="1" type="highway.service" numLanes="1" speed="5.56" shape="2568.49,1782.21 2567.04,1783.37 2563.59,1786.08" allow="delivery bicycle pedestrian"/>
    <edge id="-24264040" from="363911337" to="262698797" priority="4" type="highway.unclassified" numLanes="1" speed="13.89" disallow="tram rail_urban rail rail_electric ship"/>
    <edge id="-24319228#0" from="3227232960" to="35080864" priority="3" type="highway.residential" numLanes="1" speed="13.89" disallow="tram rail_urban rail rail_electric ship"/>
    <edge id="-24319228#1" from="2437153583" to="3227232960" priority="3" type="highway.residential" numLanes="1" speed="13.89" shape="2604.77,1395.03 2542.85,1397.46 2532.43,1398.03 2509.51,1399.31" disallow="tram rail_urban rail rail_electric ship"/>
    <edge id="-24319228#2" from="35080844" to="2437153583" priority="3" type="highway.residential" numLanes="1" speed="13.89" disallow="tram rail_urban rail rail_electric ship"/>
    <edge id="-24606605" from="267483708" to="1769768640" priority="1" type="highway.service" numLanes="1" speed="5.56" allow="delivery bicycle pedestrian"/>
    <edge id="-24606641#0" from="6293459360" to="267484026" priority="3" type="highway.residential" numLanes="1" speed="13.89" disallow="tram rail_urban rail rail_electric ship"/>
    <edge id="-24606641#1" from="2302418326" to="6293459360" priority="3" type="highway.residential" numLanes="1" speed="13.89" disallow="tram rail_urban rail rail_electric ship"/>
    <edge id="-246550004#0" from="3495230512" to="3495230570" priority="1" type="highway.cycleway" numLanes="1" speed="8.33" width="1.00" allow="bicycle"/>
    <edge id="-246550004#1" from="3495230508" to="3495230512" priority="1" type="highway.cycleway" numLanes="1" speed="8.33" width="1.00" allow="bicycle"/>
    <edge id="-246550004#2" from="3495230543" to="3495230508" priority="1" type="highway.cycleway" numLanes="1" speed="8.33" shape="3784.88,1519.27 3785.27,1528.40 3789.87,1531.65" width="1.00" allow="bicycle"/>
    <edge id="-246550004#3" from="2535767193" to="3495230543" priority="1" type="highway.cycleway" numLanes="1" speed="8.33" shape="3787.87,1507.80 3787.14,1511.14 3785.33,1514.31 3784.88,1519.27" width="1.00" allow="bicycle"/>
    <edge id="-246550004#4" from="2535767199" to="2535767193" priority="1" type="highway.cycleway" numLanes="1" speed="8.33" width="1.00" allow="bicycle"/>
    <edge id="-246550004#5" from="3495230511" to="2535767199" priority="1" type="highway.cycleway" numLanes="1" speed="8.33" width="1.00" allow="bicycle"/>
    <edge id="-246550004#6" from="3495230557" to="3495230511" priority="1" type="highway.cycleway" numLanes="1" speed="8.33" shape="3785.36,1490.18 3785.50,1493.93 3787.09,1498.18 3788.15,1501.25" width="1.00" allow="bicycle"/>
    <edge id="-246550004#7" from="4173019630" to="3495230557" priority="1" type="highway.cycleway" numLanes="1" speed="8.33" width="1.00" allow="bicycle"/>
    <edge id="-246550004#8" from="3495230513" to="4173019630" priority="1" type="highway.cycleway" numLanes="1" speed="8.33" shape="3790.42,1477.01 3786.70,1478.17 3785.32,1480.03 3785.34,1483.59" width="1.00" allow="bicycle"/>
    <edge id="-246550259" from="506825649" to="2535733154" priority="4" type="highway.unclassified" numLanes="1" speed="13.89" disallow="tram rail_urban rail rail_electric ship"/>
    <edge id="-24815663" from="736627195" to="35080915" priority="3" type="highway.residential" numLanes="1" speed="13.89" shape="2492.46,1082.42 2491.94,1108.69 2489.45,1127.71" disallow="tram rail_urban rail rail_electric ship"/>
    <edge id="-250732284" from="430785442" to="2571144381" priority="3" type="highway.residential" numLanes="1" speed="13.89" disallow="tram rail_urban rail rail_electric ship"/>
    <edge id="-25092308#0" from="6353108183" to="273098203" priority="3" type="highway.residential" numLanes="1" speed="13.89" disallow="tram rail_urban rail rail_electric ship"/>
    <edge id="-25092308#1" from="273098201" to="6353108183" priority="3" type="highway.residential" numLanes="1" speed="13.89" shape="4705.25,865.89 4705.33,863.02 4705.40,860.38 4705.50,811.38" disallow="tram rail_urban rail rail_electric ship"/>
    <edge id="-251074942#0" from="3575149361" to="2573646549" priority="1" type="highway.service" numLanes="1" speed="5.56" shape="3137.43,1284.62 3138.17,1282.37 3146.46,1258.11 3155.87,1260.51 3167.58,1210.90" allow="delivery bicycle pedestrian"/>