<?xml version="1.0" encoding="UTF-8"?>

<!-- generated on Thu Jun 13 21:59:57 2019 by Eclipse SUMO netconvert Version 1.2.0
<configuration xmlns:xsi="http://www.w3.org/2001/XMLSchema-instance" xsi:noNamespaceSchemaLocation="http://sumo.dlr.de/xsd/netconvertConfiguration.xsd">

    <input>
        <sumo-net-file value="milan.net.xml"/>
    </input>

    <output>
        <plain-output-prefix value="milan"/>
    </output>

    <processing>
        <geometry.max-grade.fix value="false"/>
        <offset.disable-normalization value="true"/>
        <lefthand value="false"/>
    </processing>

    <junctions>
        <no-turnarounds value="true"/>
        <junctions.corner-detail value="5"/>
        <junctions.limit-turn-speed value="5.5"/>
        <rectangular-lane-cut value="false"/>
    </junctions>

    <pedestrian>
        <walkingareas value="false"/>
    </pedestrian>

</configuration>
-->

<nodes version="1.1" xmlns:xsi="http://www.w3.org/2001/XMLSchema-instance" xsi:noNamespaceSchemaLocation="http://sumo.dlr.de/xsd/nodes_file.xsd">
    <location netOffset="-512642.46,-5033446.97" convBoundary="0.00,0.00,5828.04,3917.52" origBoundary="9.161729,45.425595,9.251873,45.490867" projParameter="+proj=utm +zone=32 +ellps=WGS84 +datum=WGS84 +units=m +no_defs"/>

    <node id="1112456182" x="2618.95" y="1111.63" type="dead_end"/>
    <node id="1112456214" x="2839.35" y="1436.95" type="priority"/>
    <node id="1112456266" x="2835.13" y="1380.22" type="traffic_light" tl="1112456266"/>
    <node id="1116395985" x="5083.29" y="524.94" type="priority"/>
    <node id="1118532490" x="2695.75" y="1289.07" type="dead_end"/>
    <node id="1132407379" x="2425.52" y="942.55" type="priority"/>
    <node id="114306900" x="4858.49" y="1247.27" type="traffic_light" tl="114306900"/>
    <node id="114306901" x="4861.02" y="876.78" type="traffic_light" tl="114306901"/>
    <node id="114306902" x="4861.00" y="864.73" type="traffic_light" tl="114306902"/>
    <node id="114317254" x="2482.64" y="1819.05" type="dead_end"/>
    <node id="1143719819" x="3526.27" y="1574.35" type="priority"/>
    <node id="1143719821" x="3453.07" y="1567.56" type="priority"/>
    <node id="1143719823" x="3483.32" y="1261.36" type="priority"/>
    <node id="1147826961" x="4368.88" y="519.82" type="priority"/>
    <node id="1183357802" x="3114.53" y="1595.54" type="priority"/>
    <node id="1183357812" x="3093.35" y="1665.74" type="priority"/>
    <node id="1251080501" x="3239.88" y="887.17" type="traffic_light" tl="1251080501"/>
    <node id="1251489629" x="3034.02" y="1408.99" type="traffic_light" tl="1251489629"/>
    <node id="1274837208" x="2417.30" y="1034.97" type="dead_end"/>
    <node id="1275648988" x="1640.34" y="1496.08" type="dead_end"/>
    <node id="1279617611" x="2886.54" y="1282.97" type="dead_end"/>
    <node id="1279617655" x="2887.59" y="1296.36" type="dead_end"/>
    <node id="1326193465" x="4972.19" y="604.10" type="priority"/>
    <node id="1448467632" x="4884.85" y="599.49" type="priority"/>
    <node id="1477906930" x="2497.27" y="895.66" type="priority"/>
    <node id="1477906942" x="2523.98" y="905.90" type="priority"/>
    <node id="1477906944" x="2497.74" y="922.98" type="priority"/>
    <node id="1477906950" x="2529.65" y="907.81" type="priority"/>
    <node id="1477906959" x="2511.74" y="906.36" type="priority"/>
    <node id="1477906963" x="2492.03" y="883.69" type="priority"/>
    <node id="1477906966" x="2496.84" y="928.04" type="priority"/>
    <node id="1477908749" x="2497.21" y="921.29" type="priority"/>
    <node id="1477913080" x="2507.60" y="896.11" type="priority"/>
    <node id="1477913086" x="2572.92" y="941.70" type="priority"/>
    <node id="1477913088" x="2600.32" y="942.26" type="traffic_light" tl="1477913088"/>
    <node id="1477913090" x="2502.06" y="899.20" type="priority"/>
    <node id="1477913101" x="2578.73" y="933.14" type="traffic_light" tl="1477913101"/>
    <node id="1477913105" x="2511.77" y="895.22" type="priority"/>
    <node id="1477913118" x="2498.06" y="905.80" type="traffic_light" tl="1477913118"/>
    <node id="1478959639" x="4880.40" y="871.58" type="traffic_light" tl="1478959639"/>
    <node id="1478966668" x="4363.53" y="875.41" type="priority"/>
    <node id="1478966675" x="4686.51" y="872.89" type="priority"/>
    <node id="1478966679" x="4844.51" y="871.57" type="traffic_light" tl="1478966679"/>
    <node id="1478966696" x="4544.67" y="874.12" type="priority"/>
    <node id="1478966699" x="4341.13" y="872.59" type="priority"/>
    <node id="1478966700" x="4686.43" y="870.30" type="priority"/>
    <node id="1478966701" x="4354.00" y="683.77" type="priority"/>
    <node id="1478966703" x="4860.92" y="871.57" type="traffic_light" tl="1478966703"/>
    <node id="1478966707" x="4545.70" y="871.22" type="priority"/>
    <node id="1478966713" x="4363.51" y="872.44" type="priority"/>
    <node id="1478966722" x="4341.10" y="875.62" type="priority"/>
    <node id="1478966761" x="4356.10" y="685.25" type="priority"/>
    <node id="1478966769" x="4358.70" y="524.40" type="priority"/>
    <node id="1478966772" x="4355.62" y="525.06" type="priority"/>
    <node id="1478966774" x="4327.39" y="872.64" type="priority"/>
    <node id="1478974751" x="4503.14" y="364.89" type="priority"/>
    <node id="1478974766" x="4688.67" y="346.71" type="traffic_light" tl="1478974766"/>
    <node id="1478974771" x="4860.75" y="269.27" type="dead_end"/>
    <node id="1478974789" x="4521.53" y="356.02" type="priority"/>
    <node id="1478974792" x="4702.47" y="291.07" type="dead_end"/>
    <node id="1478974795" x="4846.97" y="358.21" type="priority"/>
    <node id="1478974800" x="4503.75" y="359.98" type="priority"/>
    <node id="1478974802" x="4670.58" y="354.26" type="priority"/>
    <node id="1478974809" x="4702.10" y="356.36" type="priority"/>
    <node id="1478978835" x="4774.13" y="357.27" type="priority"/>
    <node id="1478978837" x="4839.27" y="358.44" type="traffic_light" tl="1478978837"/>
    <node id="1478981041" x="4358.10" y="431.19" type="priority"/>
    <node id="1478981044" x="4364.76" y="429.33" type="priority"/>
    <node id="1478981051" x="4364.09" y="425.46" type="priority"/>
    <node id="1479128984" x="3607.73" y="876.68" type="priority"/>
    <node id="1479128987" x="3881.17" y="873.18" type="priority"/>
    <node id="1479128988" x="4141.34" y="872.92" type="priority"/>
    <node id="1479128990" x="3607.29" y="879.21" type="priority"/>
    <node id="1479134128" x="3582.57" y="920.89" type="priority"/>
    <node id="1479134131" x="3575.73" y="1001.76" type="priority"/>
    <node id="1479134133" x="3565.42" y="1206.66" type="priority"/>
    <node id="1479134136" x="3579.55" y="1001.90" type="priority"/>
    <node id="1479134137" x="3572.89" y="1108.93" type="priority"/>
    <node id="1479134140" x="3564.73" y="1107.81" type="priority"/>
    <node id="1479134148" x="3579.08" y="969.84" type="priority"/>
    <node id="1479134154" x="3546.36" y="1484.32" type="priority"/>
    <node id="1479134155" x="3549.02" y="1353.07" type="priority"/>
    <node id="1479134158" x="3585.53" y="925.81" type="priority"/>
    <node id="1479135988" x="3537.67" y="1517.03" type="priority"/>
    <node id="1479135989" x="3516.13" y="1815.33" type="dead_end"/>
    <node id="1479135992" x="3540.07" y="1481.62" type="priority"/>
    <node id="1479135993" x="3544.00" y="1514.56" type="priority"/>
    <node id="1479157396" x="3587.84" y="898.95" type="priority"/>
    <node id="1479157408" x="3513.26" y="860.56" type="priority"/>
    <node id="1479157409" x="3588.86" y="884.36" type="priority"/>
    <node id="1479157412" x="3589.43" y="891.32" type="priority"/>
    <node id="1479157415" x="3580.70" y="832.96" type="priority"/>
    <node id="1479157419" x="3512.35" y="870.73" type="priority"/>
    <node id="1479157421" x="3596.95" y="879.95" type="priority"/>
    <node id="1479157433" x="3588.84" y="839.45" type="priority"/>
    <node id="1479157442" x="3591.84" y="848.59" type="priority"/>
    <node id="1479157453" x="3507.60" y="900.54" type="traffic_light" tl="1479157453"/>
    <node id="1479157463" x="3557.33" y="900.02" type="priority"/>
    <node id="1479157465" x="3589.86" y="870.19" type="priority"/>
    <node id="1479157467" x="3527.20" y="830.86" type="priority"/>
    <node id="1479157468" x="3530.66" y="897.60" type="traffic_light" tl="1479157468"/>
    <node id="1479157470" x="3591.10" y="856.60" type="priority"/>
    <node id="1479157489" x="3521.16" y="893.08" type="priority"/>
    <node id="1479157495" x="3585.13" y="887.40" type="priority"/>
    <node id="1479157496" x="3586.66" y="868.28" type="priority"/>
    <node id="1479162079" x="3509.16" y="886.88" type="priority"/>
    <node id="1479162081" x="3522.25" y="813.51" type="priority"/>
    <node id="1479162086" x="3597.57" y="874.17" type="priority"/>
    <node id="1479162103" x="3590.27" y="864.93" type="priority"/>
    <node id="1479162116" x="3587.74" y="856.11" type="priority"/>
    <node id="1479162121" x="3509.18" y="872.93" type="priority"/>
    <node id="1479162123" x="3503.18" y="873.03" type="priority"/>
    <node id="1479162129" x="3578.38" y="863.66" type="priority"/>
    <node id="1479162133" x="3524.03" y="862.68" type="priority"/>
    <node id="1479164104" x="3508.85" y="891.37" type="traffic_light" tl="1479164104"/>
    <node id="1479164111" x="3509.40" y="870.66" type="traffic_light" tl="1479164111"/>
    <node id="1479164113" x="3493.29" y="881.88" type="priority"/>
    <node id="1479164114" x="3588.31" y="892.21" type="priority"/>
    <node id="1479164116" x="3566.93" y="901.49" type="traffic_light" tl="1479164116"/>
    <node id="1479164118" x="3584.73" y="894.58" type="priority"/>
    <node id="1479164121" x="3502.36" y="871.45" type="traffic_light" tl="1479164121"/>
    <node id="1479166066" x="3489.81" y="878.66" type="priority"/>
    <node id="1479171667" x="3524.49" y="856.69" type="traffic_light" tl="1479171667"/>
    <node id="1479171670" x="3596.74" y="882.62" type="priority"/>
    <node id="1479171671" x="3531.68" y="853.93" type="traffic_light" tl="1479171671"/>
    <node id="1479171678" x="3572.84" y="856.27" type="traffic_light" tl="1479171678"/>
    <node id="1479171679" x="3603.76" y="871.09" type="traffic_light" tl="1479171679"/>
    <node id="1479175184" x="3066.62" y="883.89" type="traffic_light" tl="1479175184"/>
    <node id="1479175187" x="3134.41" y="883.31" type="priority"/>
    <node id="1479175188" x="3161.27" y="888.46" type="priority"/>
    <node id="1479175190" x="2861.86" y="886.15" type="priority"/>
    <node id="1479175195" x="3134.52" y="885.57" type="priority"/>
    <node id="1479183740" x="2673.70" y="961.76" type="priority"/>
    <node id="1479183751" x="2750.17" y="961.08" type="priority"/>
    <node id="1479183755" x="2624.98" y="954.95" type="priority"/>
    <node id="1479183756" x="2723.52" y="961.36" type="priority"/>
    <node id="1479183758" x="2842.50" y="897.31" type="priority"/>
    <node id="1479183764" x="2507.77" y="999.72" type="priority"/>
    <node id="1479183768" x="2795.71" y="940.94" type="priority"/>
    <node id="1479183769" x="2532.41" y="1030.46" type="priority"/>
    <node id="1479183773" x="2793.82" y="938.69" type="priority"/>
    <node id="1479183774" x="2765.49" y="956.97" type="priority"/>
    <node id="1479183775" x="2493.20" y="1014.33" type="priority"/>
    <node id="1479183776" x="2777.77" y="954.70" type="priority"/>
    <node id="1479183779" x="2751.32" y="963.93" type="priority"/>
    <node id="1479183789" x="2603.21" y="951.34" type="priority"/>
    <node id="1479192557" x="2494.25" y="971.83" type="priority"/>
    <node id="1479193475" x="2536.43" y="994.14" type="priority"/>
    <node id="1479193476" x="2536.59" y="988.99" type="priority"/>
    <node id="1479196066" x="2604.60" y="948.50" type="priority"/>
    <node id="1479196085" x="2585.31" y="972.73" type="priority"/>
    <node id="1479196093" x="2582.92" y="946.27" type="priority"/>
    <node id="1479199991" x="2569.39" y="946.88" type="traffic_light" tl="1479199991"/>
    <node id="1479199992" x="2590.81" y="958.27" type="priority"/>
    <node id="1479199993" x="2611.72" y="971.18" type="traffic_light" tl="1479199993"/>
    <node id="1479200174" x="2558.99" y="1000.40" type="priority"/>
    <node id="1479200175" x="2533.20" y="1014.29" type="priority"/>
    <node id="1479200177" x="2588.50" y="968.74" type="priority"/>
    <node id="1479200181" x="2582.59" y="984.64" type="priority"/>
    <node id="1479202131" x="3453.95" y="420.33" type="priority"/>
    <node id="1479202134" x="3552.81" y="599.92" type="priority"/>
    <node id="1479202143" x="3430.28" y="360.09" type="priority"/>
    <node id="1479202148" x="3459.91" y="419.29" type="priority"/>
    <node id="1479202152" x="3594.16" y="722.23" type="priority"/>
    <node id="1479202153" x="3442.88" y="394.45" type="priority"/>
    <node id="1479202154" x="3557.32" y="597.76" type="priority"/>
    <node id="1479463479" x="2400.85" y="1708.28" type="dead_end"/>
    <node id="1479463487" x="2403.03" y="1706.85" type="priority"/>
    <node id="1479463503" x="2425.75" y="1742.69" type="priority"/>
    <node id="1480088554" x="2408.65" y="323.91" type="dead_end"/>
    <node id="1480089154" x="2480.22" y="358.23" type="priority"/>
    <node id="1480089163" x="2425.83" y="404.39" type="priority"/>
    <node id="1480089556" x="2614.65" y="236.11" type="dead_end"/>
    <node id="1480160944" x="3333.71" y="341.31" type="priority"/>
    <node id="1480161895" x="3346.15" y="347.55" type="priority"/>
    <node id="1480161910" x="3379.20" y="395.85" type="priority"/>
    <node id="1480161913" x="3381.17" y="401.09" type="priority"/>
    <node id="1480162306" x="3437.43" y="382.24" type="priority"/>
    <node id="1480162307" x="3396.82" y="402.61" type="priority"/>
    <node id="1480162309" x="3431.27" y="382.02" type="priority"/>
    <node id="1480162314" x="3398.17" y="399.80" type="priority"/>
    <node id="1480162315" x="3438.62" y="384.93" type="priority"/>
    <node id="1480162316" x="3443.39" y="380.52" type="priority"/>
    <node id="1480162319" x="3441.95" y="376.35" type="priority"/>
    <node id="1480162321" x="3447.51" y="376.68" type="priority"/>
    <node id="1480162325" x="3433.67" y="388.42" type="priority"/>
    <node id="1480164295" x="3539.83" y="324.02" type="dead_end"/>
    <node id="1480164297" x="3456.29" y="368.58" type="priority"/>
    <node id="1481173050" x="2611.40" y="866.43" type="dead_end"/>
    <node id="1481173070" x="2632.04" y="867.43" type="dead_end"/>
    <node id="1481173110" x="2531.41" y="900.95" type="priority"/>
    <node id="1481173185" x="2527.23" y="907.00" type="priority"/>
    <node id="1481173223" x="2525.92" y="908.90" type="priority"/>
    <node id="1481173291" x="2522.44" y="913.94" type="priority"/>
    <node id="1504226169" x="2475.31" y="361.70" type="priority"/>
    <node id="1504226186" x="2839.25" y="904.60" type="priority"/>
    <node id="1504226194" x="2619.46" y="572.68" type="right_before_left"/>
    <node id="1504226207" x="2832.08" y="894.65" type="priority"/>
    <node id="1504226209" x="2677.18" y="660.65" type="priority"/>
    <node id="1504226216" x="2473.07" y="359.20" type="priority"/>
    <node id="1504226218" x="2549.71" y="467.58" type="priority"/>
    <node id="1504226225" x="2714.82" y="718.91" type="priority"/>
    <node id="1504226230" x="2406.89" y="326.60" type="dead_end"/>
    <node id="1504226236" x="2582.65" y="518.10" type="right_before_left"/>
    <node id="1504226239" x="2837.23" y="901.76" type="priority"/>
    <node id="1504232628" x="2964.99" y="1091.41" type="priority"/>
    <node id="1504232634" x="2931.24" y="1599.12" type="priority"/>
    <node id="1504232646" x="2894.65" y="984.26" type="priority"/>
    <node id="1504232648" x="3030.30" y="1395.80" type="traffic_light" tl="1504232648"/>
    <node id="1504232665" x="2848.37" y="1708.73" type="priority"/>
    <node id="1504232673" x="3024.78" y="1264.52" type="priority"/>
    <node id="1504232684" x="3030.25" y="1402.56" type="priority"/>
    <node id="1511830388" x="3291.38" y="391.58" type="priority"/>
    <node id="1511830394" x="3387.28" y="416.55" type="priority"/>
    <node id="1511830413" x="3376.89" y="420.40" type="priority"/>
    <node id="1511838184" x="3406.61" y="266.22" type="dead_end"/>
    <node id="1512865724" x="2754.17" y="1274.67" type="dead_end"/>
    <node id="1521051490" x="4866.68" y="1473.93" type="right_before_left"/>
    <node id="1521051506" x="4918.28" y="1520.08" type="dead_end"/>
    <node id="1521051520" x="4918.94" y="1535.31" type="dead_end"/>
    <node id="1521051587" x="4854.00" y="1581.89" type="priority"/>
    <node id="1521051624" x="4842.75" y="1586.12" type="priority"/>
    <node id="1521051651" x="4842.71" y="1613.28" type="priority"/>
    <node id="1521051653" x="4888.34" y="1613.29" type="priority"/>
    <node id="1521051656" x="4873.29" y="1625.31" type="priority"/>
    <node id="1521051678" x="4842.65" y="1640.82" type="priority"/>
    <node id="1521051681" x="4853.44" y="1649.64" type="priority"/>
    <node id="1521051683" x="4833.09" y="1659.70" type="priority"/>
    <node id="1521093734" x="4956.33" y="1490.82" type="priority"/>
    <node id="1521490637" x="2919.96" y="1374.13" type="priority"/>
    <node id="1521490701" x="3344.13" y="1455.28" type="traffic_light" tl="1521490701"/>
    <node id="1521490726" x="3331.56" y="1464.22" type="traffic_light" tl="1521490726"/>
    <node id="1521525442" x="3086.22" y="1794.54" type="priority"/>
    <node id="1521649901" x="3206.60" y="1315.14" type="priority"/>
    <node id="1521649904" x="3284.35" y="1322.00" type="priority"/>
    <node id="1521649908" x="3193.13" y="1322.59" type="priority"/>
    <node id="1521649914" x="3364.51" y="1330.31" type="priority"/>
    <node id="1521649918" x="3291.92" y="1333.95" type="priority"/>
    <node id="1521649919" x="3347.01" y="1340.23" type="priority"/>
    <node id="1521649924" x="3407.45" y="1345.31" type="priority"/>
    <node id="1521649929" x="3359.47" y="1351.55" type="priority"/>
    <node id="1526220284" x="2449.33" y="678.73" type="priority"/>
    <node id="1526220285" x="2456.72" y="681.00" type="priority"/>
    <node id="1526220347" x="2595.81" y="842.70" type="priority"/>
    <node id="1526220359" x="2539.69" y="898.39" type="priority"/>
    <node id="1526254097" x="2597.62" y="825.02" type="priority"/>
    <node id="1526254116" x="2603.64" y="829.96" type="priority"/>
    <node id="1526254291" x="2661.41" y="920.74" type="dead_end"/>
    <node id="1526254315" x="2622.97" y="951.32" type="traffic_light" tl="1526254315"/>
    <node id="1526254327" x="2622.28" y="954.48" type="traffic_light" tl="1526254327"/>
    <node id="1526254331" x="2620.74" y="961.07" type="traffic_light" tl="1526254331"/>
    <node id="1541477990" x="4323.75" y="1534.48" type="dead_end"/>
    <node id="1541477998" x="4324.30" y="1494.35" type="dead_end"/>
    <node id="1558250472" x="2608.51" y="1206.77" type="dead_end"/>
    <node id="1558250473" x="2564.63" y="1116.78" type="dead_end"/>
    <node id="1558250479" x="2602.03" y="1085.32" type="dead_end"/>
    <node id="1558250483" x="2665.81" y="1025.06" type="priority"/>
    <node id="1558250488" x="2618.20" y="1116.70" type="dead_end"/>
    <node id="1558250490" x="2589.53" y="1052.26" type="right_before_left"/>
    <node id="1558250492" x="2644.48" y="1038.19" type="priority"/>
    <node id="1584794371" x="2737.40" y="1273.26" type="dead_end"/>
    <node id="1584794372" x="2707.96" y="1256.94" type="dead_end"/>
    <node id="1584826115" x="2402.13" y="1707.68" type="priority"/>
    <node id="1584826190" x="2481.54" y="1819.63" type="priority"/>
    <node id="1584826241" x="2426.99" y="1741.71" type="traffic_light" tl="1584826241"/>
    <node id="1584826244" x="2428.14" y="1740.80" type="priority"/>
    <node id="1606676523" x="4900.23" y="609.74" type="dead_end"/>
    <node id="1606676526" x="4838.68" y="623.33" type="dead_end"/>
    <node id="1607596789" x="2824.09" y="1313.96" type="dead_end"/>
    <node id="1607596790" x="2776.58" y="1316.64" type="dead_end"/>
    <node id="1607596792" x="2825.91" y="1357.68" type="dead_end"/>
    <node id="1607596793" x="2779.20" y="1363.82" type="dead_end"/>
    <node id="1607596794" x="2837.72" y="1392.30" type="dead_end"/>
    <node id="1607596795" x="2789.12" y="1399.56" type="dead_end"/>
    <node id="1610904613" x="3227.59" y="883.32" type="priority"/>
    <node id="1612269603" x="2804.62" y="983.20" type="priority"/>
    <node id="1612276275" x="3354.30" y="338.74" type="traffic_light" tl="1612276275"/>
    <node id="1627126752" x="2945.59" y="1097.85" type="dead_end"/>
    <node id="1716758071" x="4833.43" y="704.30" type="priority"/>
    <node id="1726512295" x="3575.71" y="832.73" type="traffic_light" tl="1726512295"/>
    <node id="1727482515" x="2472.62" y="855.26" type="priority"/>
    <node id="1727482525" x="2607.97" y="919.67" type="dead_end"/>
    <node id="1727482529" x="2624.95" y="942.33" type="dead_end"/>
    <node id="1727483212" x="2827.78" y="899.08" type="traffic_light" tl="1727483212"/>
    <node id="1731215523" x="4990.51" y="1469.71" type="priority"/>
    <node id="1731215528" x="5004.06" y="1491.39" type="priority"/>
    <node id="1736732489" x="4319.14" y="292.97" type="priority"/>
    <node id="1736732494" x="4340.86" y="440.10" type="traffic_light" tl="1736732494"/>
    <node id="1737460985" x="4178.20" y="245.93" type="traffic_light" tl="1737460985"/>
    <node id="1737460987" x="4232.72" y="340.24" type="priority"/>
    <node id="1737460997" x="4298.73" y="459.64" type="priority"/>
    <node id="1737461012" x="4211.18" y="538.52" type="dead_end"/>
    <node id="1737461030" x="3914.04" y="601.37" type="priority"/>
    <node id="1737461034" x="3865.12" y="619.64" type="traffic_light" tl="1737461034"/>
    <node id="1746151189" x="4027.51" y="1333.39" type="priority"/>
    <node id="1746151193" x="4026.82" y="1362.35" type="priority"/>
    <node id="1746151197" x="4035.68" y="1485.91" type="priority"/>
    <node id="1746151203" x="3789.49" y="1565.24" type="priority"/>
    <node id="1754349537" x="2446.74" y="1346.93" type="traffic_light" tl="1754349537"/>
    <node id="1754349548" x="2285.12" y="1383.59" type="dead_end"/>
    <node id="1757298692" x="3200.34" y="629.22" type="priority"/>
    <node id="1757298800" x="2992.67" y="728.60" type="priority"/>
    <node id="1757298940" x="3032.35" y="867.73" type="priority"/>
    <node id="1757298951" x="3167.16" y="881.31" type="priority"/>
    <node id="1757298952" x="3166.63" y="883.80" type="priority"/>
    <node id="1757298964" x="3126.09" y="895.05" type="priority"/>
    <node id="1757298999" x="3087.30" y="919.77" type="priority"/>
    <node id="1757299029" x="3129.55" y="936.22" type="priority">
        <param key="buffer_stop" value="true"/>
    </node>
    <node id="1757299037" x="3088.18" y="943.52" type="priority"/>
    <node id="1762448441" x="4032.01" y="704.57" type="priority"/>
    <node id="1762448446" x="4045.85" y="863.76" type="traffic_light" tl="1762448446"/>
    <node id="1762448447" x="4054.62" y="868.62" type="traffic_light" tl="1762448447"/>
    <node id="1762448448" x="4039.28" y="868.69" type="traffic_light" tl="1762448448"/>
    <node id="1762448449" x="4054.27" y="879.54" type="traffic_light" tl="1762448449"/>
    <node id="1762448450" x="4040.80" y="879.59" type="traffic_light" tl="1762448450"/>
    <node id="1762448451" x="4045.57" y="883.65" type="traffic_light" tl="1762448451"/>
    <node id="1763153055" x="3925.22" y="239.03" type="priority"/>
    <node id="1769768640" x="2587.84" y="798.44" type="priority"/>
    <node id="1779784927" x="3669.60" y="1484.53" type="priority"/>
    <node id="1779784948" x="3668.58" y="1520.87" type="priority"/>
    <node id="1779784978" x="2809.65" y="1773.96" type="priority"/>
    <node id="1779784981" x="2784.12" y="1803.15" type="priority"/>
    <node id="1779784986" x="2972.00" y="1832.71" type="dead_end"/>
    <node id="1780527775" x="3560.49" y="1466.66" type="priority"/>
    <node id="1780527776" x="3524.40" y="1478.31" type="traffic_light" tl="1780527776"/>
    <node id="1780527777" x="3553.64" y="1480.46" type="traffic_light" tl="1780527777"/>
    <node id="1780527802" x="3462.88" y="1514.19" type="traffic_light" tl="1780527802"/>
    <node id="1780527804" x="3548.77" y="1530.52" type="traffic_light" tl="1780527804"/>
    <node id="1780527805" x="3522.88" y="1522.71" type="traffic_light" tl="1780527805"/>
    <node id="1780527807" x="3547.21" y="1646.34" type="priority"/>
    <node id="1780527809" x="3527.83" y="1650.17" type="priority"/>
    <node id="1780527813" x="3539.65" y="1653.21" type="priority"/>
    <node id="1780527819" x="3786.58" y="1797.10" type="priority"/>
    <node id="1780527820" x="3866.09" y="1797.82" type="priority"/>
    <node id="1780527827" x="3511.64" y="1805.03" type="traffic_light" tl="1780527827"/>
    <node id="1780527829" x="3516.87" y="1805.48" type="traffic_light" tl="1780527829"/>
    <node id="1780527830" x="3528.04" y="1806.47" type="traffic_light" tl="1780527830"/>
    <node id="1780527831" x="3522.22" y="1805.95" type="traffic_light" tl="1780527831"/>
    <node id="1780527834" x="3786.25" y="1808.93" type="traffic_light" tl="1780527834"/>
    <node id="1780527836" x="3865.89" y="1810.56" type="traffic_light" tl="1780527836"/>
    <node id="1780606150" x="3786.45" y="1804.13" type="priority"/>
    <node id="1780606152" x="3814.72" y="1804.41" type="priority"/>
    <node id="1822701274" x="4637.70" y="321.90" type="right_before_left"/>
    <node id="1822701276" x="4680.86" y="345.10" type="right_before_left"/>
    <node id="1822701277" x="4685.25" y="349.58" type="traffic_light" tl="1822701277"/>
    <node id="1822701278" x="4688.53" y="355.96" type="traffic_light" tl="1822701278"/>
    <node id="1822701281" x="4702.42" y="345.16" type="traffic_light" tl="1822701281"/>
    <node id="1822701290" x="4711.37" y="356.49" type="priority"/>
    <node id="1822701294" x="4689.60" y="357.65" type="traffic_light" tl="1822701294"/>
    <node id="1822701295" x="4695.80" y="368.64" type="priority"/>
    <node id="1822701299" x="4695.46" y="422.79" type="priority"/>
    <node id="1822701301" x="4703.37" y="422.88" type="priority"/>
    <node id="1822701303" x="4702.26" y="472.07" type="priority"/>
    <node id="1822701304" x="4695.14" y="471.98" type="priority"/>
    <node id="1822701306" x="4691.01" y="471.93" type="dead_end"/>
    <node id="1822701308" x="4690.53" y="482.17" type="priority"/>
    <node id="1822701309" x="4892.57" y="599.17" type="priority"/>
    <node id="1822701312" x="5268.05" y="604.05" type="dead_end"/>
    <node id="1822701315" x="5035.16" y="604.09" type="priority"/>
    <node id="1822701326" x="4892.36" y="605.55" type="priority"/>
    <node id="1822701333" x="4851.44" y="610.18" type="priority"/>
    <node id="1822701335" x="4846.16" y="610.01" type="priority"/>
    <node id="1822701339" x="4884.73" y="610.27" type="priority"/>
    <node id="1822701341" x="4864.01" y="610.21" type="priority"/>
    <node id="1822701342" x="4879.24" y="610.26" type="priority"/>
    <node id="1822701348" x="5035.14" y="611.06" type="right_before_left"/>
    <node id="1824860697" x="4846.58" y="1475.15" type="right_before_left"/>
    <node id="1824860699" x="4756.86" y="1516.89" type="priority"/>
    <node id="1824860700" x="4778.15" y="1520.81" type="priority"/>
    <node id="1831015808" x="3881.57" y="865.77" type="priority"/>
    <node id="1831015809" x="3873.45" y="865.89" type="dead_end"/>
    <node id="1831015810" x="3891.03" y="865.93" type="dead_end"/>
    <node id="1831015811" x="3891.13" y="868.93" type="priority"/>
    <node id="1831015812" x="3873.52" y="869.04" type="priority"/>
    <node id="1831015815" x="3159.64" y="867.39" type="dead_end"/>
    <node id="1831015817" x="3023.54" y="866.76" type="dead_end"/>
    <node id="1831015819" x="3056.46" y="868.29" type="dead_end"/>
    <node id="1831015821" x="3037.80" y="868.33" type="dead_end"/>
    <node id="1831015822" x="4045.72" y="872.55" type="priority"/>
    <node id="1831015823" x="3891.26" y="873.14" type="priority"/>
    <node id="1831015824" x="3873.61" y="873.28" type="priority"/>
    <node id="1831015825" x="4045.68" y="875.27" type="priority"/>
    <node id="1831015826" x="3873.69" y="876.87" type="priority"/>
    <node id="1831015827" x="3056.81" y="875.98" type="traffic_light" tl="1831015827"/>
    <node id="1831015828" x="3179.13" y="874.92" type="traffic_light" tl="1831015828"/>
    <node id="1831015831" x="3891.59" y="883.19" type="priority"/>
    <node id="1831015832" x="3873.82" y="883.21" type="priority"/>
    <node id="1831015834" x="3237.42" y="880.52" type="priority"/>
    <node id="1831015835" x="3178.29" y="881.07" type="priority"/>
    <node id="1831015836" x="3177.83" y="883.64" type="priority"/>
    <node id="1831015838" x="3891.73" y="887.45" type="dead_end"/>
    <node id="1831015840" x="3881.13" y="887.80" type="priority"/>
    <node id="1831015841" x="3873.92" y="888.04" type="dead_end"/>
    <node id="1831015843" x="3177.12" y="887.76" type="traffic_light" tl="1831015843"/>
    <node id="1831015845" x="3057.51" y="891.45" type="dead_end"/>
    <node id="1831015846" x="3066.73" y="889.90" type="traffic_light" tl="1831015846"/>
    <node id="1831015847" x="3071.99" y="891.24" type="dead_end"/>
    <node id="1831015870" x="3078.65" y="911.53" type="priority"/>
    <node id="1831015876" x="3093.51" y="918.11" type="dead_end"/>
    <node id="1831015878" x="3089.31" y="919.21" type="dead_end"/>
    <node id="1831015901" x="2765.92" y="960.35" type="priority"/>
    <node id="1831015903" x="2971.07" y="964.35" type="dead_end"/>
    <node id="1831015910" x="2756.14" y="973.36" type="dead_end"/>
    <node id="1831015913" x="2945.24" y="977.32" type="dead_end"/>