<?xml version="1.0" encoding="UTF-8"?>

<!-- generated on Thu Jun 13 21:59:57 2019 by Eclipse SUMO netconvert Version 1.2.0
<configuration xmlns:xsi="http://www.w3.org/2001/XMLSchema-instance" xsi:noNamespaceSchemaLocation="http://sumo.dlr.de/xsd/netconvertConfiguration.xsd">

    <input>
        <sumo-net-file value="milan.net.xml"/>
    </input>

    <output>
        <plain-output-prefix value="milan"/>
    </output>

    <processing>
        <geometry.max-grade.fix value="false"/>
        <offset.disable-normalization value="true"/>
        <lefthand value="false"/>
    </processing>

    <junctions>
        <no-turnarounds value="true"/>
        <junctions.corner-detail value="5"/>
        <junctions.limit-turn-speed value="5.5"/>
        <rectangular-lane-cut value="false"/>
    </junctions>

    <pedestrian>
        <walkingareas value="false"/>
    </pedestrian>

</configuration>
-->

<tlLogics version="1.1" xmlns:xsi="http://www.w3.org/2001/XMLSchema-instance" xsi:noNamespaceSchemaLocation="http://sumo.dlr.de/xsd/tllogic_file.xsd">
    <tlLogic id="1112456266" type="static" programID="0" offset="0">
        <phase duration="82" state="G"/>
        <phase duration="3"  state="y"/>
        <phase duration="5"  state="r"/>
    </tlLogic>
    <tlLogic id="114306900" type="static" programID="0" offset="0">
        <phase duration="39" state="rrrrGGGgrrrrGGGg"/>
        <phase duration="6"  state="rrrryyyyrrrryyyy"/>
        <phase duration="39" state="GGggrrrrGGggrrrr"/>
        <phase duration="6"  state="yyyyrrrryyyyrrrr"/>
    </tlLogic>
    <tlLogic id="114306901" type="static" programID="0" offset="0">
        <phase duration="39" state="rrrGGGG"/>
        <phase duration="6"  state="rrryyyy"/>
        <phase duration="39" state="GGGrrrr"/>
        <phase duration="6"  state="yyyrrrr"/>
    </tlLogic>
    <tlLogic id="114306902" type="static" programID="0" offset="0">
        <phase duration="39" state="GGrrrGG"/>
        <phase duration="6"  state="yyrrryy"/>
        <phase duration="39" state="rrGGGrr"/>
        <phase duration="6"  state="rryyyrr"/>
    </tlLogic>
    <tlLogic id="1251080501" type="static" programID="0" offset="0">
        <phase duration="80" state="G"/>
        <phase duration="5"  state="y"/>
        <phase duration="5"  state="r"/>
    </tlLogic>
    <tlLogic id="1251489629" type="static" programID="0" offset="0">
        <phase duration="82" state="G"/>
        <phase duration="3"  state="y"/>
        <phase duration="5"  state="r"/>
    </tlLogic>
    <tlLogic id="1477913088" type="static" programID="0" offset="0">
        <phase duration="42" state="GrG"/>
        <phase duration="3"  state="yry"/>
        <phase duration="42" state="rGG"/>
        <phase duration="3"  state="ryy"/>
    </tlLogic>
    <tlLogic id="1477913101" type="static" programID="0" offset="0">
        <phase duration="82" state="GG"/>
        <phase duration="3"  state="yy"/>
        <phase duration="5"  state="rr"/>
    </tlLogic>
    <tlLogic id="1477913118" type="static" programID="0" offset="0">
        <phase duration="82" state="GG"/>
        <phase duration="3"  state="yy"/>
        <phase duration="5"  state="rr"/>
    </tlLogic>
    <tlLogic id="1478959639" type="static" programID="0" offset="0">
        <phase duration="42" state="Gr"/>
        <phase duration="3"  state="yr"/>
        <phase duration="42" state="rG"/>
        <phase duration="3"  state="ry"/>
    </tlLogic>
    <tlLogic id="1478966679" type="static" programID="0" offset="0">
        <phase duration="42" state="Gr"/>
        <phase duration="3"  state="yr"/>
        <phase duration="42" state="rG"/>
        <phase duration="3"  state="ry"/>
    </tlLogic>
    <tlLogic id="1478966703" type="static" programID="0" offset="0">
        <phase duration="39" state="GGgrGGg"/>
        <phase duration="6"  state="yyyryyy"/>
        <phase duration="39" state="rrGGrrG"/>
        <phase duration="6"  state="rryyrry"/>
    </tlLogic>
    <tlLogic id="1478974766" type="static" programID="0" offset="0">
        <phase duration="82" state="G"/>
        <phase duration="3"  state="y"/>
        <phase duration="5"  state="r"/>
    </tlLogic>
    <tlLogic id="1478978837" type="static" programID="0" offset="0">
        <phase duration="42" state="GggGGgrrr"/>
        <phase duration="3"  state="yyyyyyrrr"/>
        <phase duration="42" state="rrrrrrGGG"/>
        <phase duration="3"  state="rrrrrryyy"/>
    </tlLogic>
    <tlLogic id="1479157453" type="static" programID="0" offset="0">
        <phase duration="79" state="GG"/>
        <phase duration="6"  state="yy"/>
        <phase duration="5"  state="rr"/>
    </tlLogic>
    <tlLogic id="1479157468" type="static" programID="0" offset="0">
        <phase duration="82" state="G"/>
        <phase duration="3"  state="y"/>
        <phase duration="5"  state="r"/>
    </tlLogic>
    <tlLogic id="1479164104" type="static" programID="0" offset="0">
        <phase duration="39" state="GGGrrrr"/>
        <phase duration="6"  state="yyyrrrr"/>
        <phase duration="39" state="rrrGGGG"/>
        <phase duration="6"  state="rrryyyy"/>
    </tlLogic>
    <tlLogic id="1479164111" type="static" programID="0" offset="0">
        <phase duration="24" state="GGrrrrr"/>
        <phase duration="6"  state="yyrrrrr"/>
        <phase duration="24" state="rrrrGGG"/>
        <phase duration="6"  state="rrrryyy"/>
        <phase duration="24" state="rrGGrrr"/>
        <phase duration="6"  state="rryyrrr"/>
    </tlLogic>
    <tlLogic id="1479164116" type="static" programID="0" offset="0">
        <phase duration="39" state="Grr"/>
        <phase duration="6"  state="yrr"/>
        <phase duration="39" state="rGG"/>
        <phase duration="6"  state="ryy"/>
    </tlLogic>
    <tlLogic id="1479164121" type="static" programID="0" offset="0">
        <phase duration="80" state="G"/>
        <phase duration="5"  state="y"/>
        <phase duration="5"  state="r"/>
    </tlLogic>
    <tlLogic id="1479171667" type="static" programID="0" offset="0">
        <phase duration="39" state="rrrGGG"/>
        <phase duration="6"  state="rrryyy"/>
        <phase duration="39" state="GGGrrr"/>
        <phase duration="6"  state="yyyrrr"/>
    </tlLogic>
    <tlLogic id="1479171671" type="static" programID="0" offset="0">
        <phase duration="79" state="GG"/>
        <phase duration="6"  state="yy"/>
        <phase duration="5"  state="rr"/>
    </tlLogic>
    <tlLogic id="1479171678" type="static" programID="0" offset="0">
        <phase duration="79" state="GG"/>
        <phase duration="6"  state="yy"/>
        <phase duration="5"  state="rr"/>
    </tlLogic>
    <tlLogic id="1479171679" type="static" programID="0" offset="0">
        <phase duration="79" state="GG"/>
        <phase duration="6"  state="yy"/>
        <phase duration="5"  state="rr"/>
    </tlLogic>
    <tlLogic id="1479175184" type="static" programID="0" offset="0">
        <phase duration="42" state="Gr"/>
        <phase duration="3"  state="yr"/>
        <phase duration="42" state="rG"/>
        <phase duration="3"  state="ry"/>
    </tlLogic>
    <tlLogic id="1479199991" type="static" programID="0" offset="0">
        <phase duration="82" state="GG"/>
        <phase duration="3"  state="yy"/>
        <phase duration="5"  state="rr"/>
    </tlLogic>
    <tlLogic id="1479199993" type="static" programID="0" offset="0">
        <phase duration="82" state="G"/>
        <phase duration="3"  state="y"/>
        <phase duration="5"  state="r"/>
    </tlLogic>
    <tlLogic id="1504232648" type="static" programID="0" offset="0">
        <phase duration="82" state="G"/>
        <phase duration="3"  state="y"/>
        <phase duration="5"  state="r"/>
    </tlLogic>
    <tlLogic id="1521490701" type="static" programID="0" offset="0">
        <phase duration="82" state="GG"/>
        <phase duration="3"  state="yy"/>
        <phase duration="5"  state="rr"/>
    </tlLogic>
    <tlLogic id="1521490726" type="static" programID="0" offset="0">
        <phase duration="82" state="G"/>
        <phase duration="3"  state="y"/>
        <phase duration="5"  state="r"/>
    </tlLogic>
    <tlLogic id="1526254315" type="static" programID="0" offset="0">
        <phase duration="82" state="G"/>
        <phase duration="3"  state="y"/>
        <phase duration="5"  state="r"/>
    </tlLogic>
    <tlLogic id="1526254327" type="static" programID="0" offset="0">
        <phase duration="82" state="G"/>
        <phase duration="3"  state="y"/>
        <phase duration="5"  state="r"/>
    </tlLogic>
    <tlLogic id="1526254331" type="static" programID="0" offset="0">
        <phase duration="82" state="G"/>
        <phase duration="3"  state="y"/>
        <phase duration="5"  state="r"/>
    </tlLogic>
    <tlLogic id="1584826241" type="static" programID="0" offset="0">
        <phase duration="42" state="GgrrGg"/>
        <phase duration="3"  state="yyrryy"/>
        <phase duration="42" state="rrGGrr"/>
        <phase duration="3"  state="rryyrr"/>
    </tlLogic>
    <tlLogic id="1612276275" type="static" programID="0" offset="0">
        <phase duration="39" state="GGGrr"/>
        <phase duration="6"  state="yyyrr"/>
        <phase duration="39" state="rrrGG"/>
        <phase duration="6"  state="rrryy"/>
    </tlLogic>
    <tlLogic id="1726512295" type="static" programID="0" offset="0">
        <phase duration="82" state="G"/>
        <phase duration="3"  state="y"/>
        <phase duration="5"  state="r"/>
    </tlLogic>
    <tlLogic id="1727483212" type="static" programID="0" offset="0">
        <phase duration="82" state="G"/>
        <phase duration="3"  state="y"/>
        <phase duration="5"  state="r"/>
    </tlLogic>
    <tlLogic id="1736732494" type="static" programID="0" offset="0">
        <phase duration="42" state="GGrrr"/>
        <phase duration="3"  state="yyrrr"/>
        <phase duration="42" state="GrGGG"/>
        <phase duration="3"  state="yryyy"/>
    </tlLogic>
    <tlLogic id="1737460985" type="static" programID="0" offset="0">
        <phase duration="42" state="Gr"/>
        <phase duration="3"  state="yr"/>
        <phase duration="42" state="Gg"/>
        <phase duration="3"  state="yy"/>
    </tlLogic>
    <tlLogic id="1737461034" type="static" programID="0" offset="0">
        <phase duration="42" state="GggGGgrrr"/>
        <phase duration="3"  state="yyyyyyrrr"/>
        <phase duration="42" state="rrrrrrGGG"/>
        <phase duration="3"  state="rrrrrryyy"/>
    </tlLogic>
    <tlLogic id="1754349537" type="static" programID="0" offset="0">
        <phase duration="82" state="G"/>
        <phase duration="3"  state="y"/>
        <phase duration="5"  state="r"/>
    </tlLogic>
    <tlLogic id="1762448446" type="static" programID="0" offset="0">
        <phase duration="82" state="G"/>
        <phase duration="3"  state="y"/>
        <phase duration="5"  state="r"/>
    </tlLogic>
    <tlLogic id="1762448447" type="static" programID="0" offset="0">
        <phase duration="79" state="GG"/>
        <phase duration="6"  state="yy"/>
        <phase duration="5"  state="rr"/>
    </tlLogic>
    <tlLogic id="1762448448" type="static" programID="0" offset="0">
        <phase duration="79" state="GG"/>
        <phase duration="6"  state="yy"/>
        <phase duration="5"  state="rr"/>
    </tlLogic>
    <tlLogic id="1762448449" type="static" programID="0" offset="0">
        <phase duration="79" state="GG"/>
        <phase duration="6"  state="yy"/>
        <phase duration="5"  state="rr"/>
    </tlLogic>
    <tlLogic id="1762448450" type="static" programID="0" offset="0">
        <phase duration="79" state="GG"/>
        <phase duration="6"  state="yy"/>
        <phase duration="5"  state="rr"/>
    </tlLogic>
    <tlLogic id="1762448451" type="static" programID="0" offset="0">
        <phase duration="82" state="G"/>
        <phase duration="3"  state="y"/>
        <phase duration="5"  state="r"/>
    </tlLogic>
    <tlLogic id="1780527776" type="static" programID="0" offset="0">
        <phase duration="80" state="G"/>
        <phase duration="5"  state="y"/>
        <phase duration="5"  state="r"/>
    </tlLogic>
    <tlLogic id="1780527777" type="static" programID="0" offset="0">
        <phase duration="40" state="GGrr"/>
        <phase duration="5"  state="yyrr"/>
        <phase duration="40" state="rrGG"/>
        <phase duration="5"  state="rryy"/>
    </tlLogic>
    <tlLogic id="1780527802" type="static" programID="0" offset="0">
        <phase duration="80" state="G"/>
        <phase duration="5"  state="y"/>
        <phase duration="5"  state="r"/>
    </tlLogic>
    <tlLogic id="1780527804" type="static" programID="0" offset="0">
        <phase duration="80" state="G"/>
        <phase duration="5"  state="y"/>
        <phase duration="5"  state="r"/>
    </tlLogic>
    <tlLogic id="1780527805" type="static" programID="0" offset="0">
        <phase duration="80" state="G"/>
        <phase duration="5"  state="y"/>
        <phase duration="5"  state="r"/>
    </tlLogic>
    <tlLogic id="1780527827" type="static" programID="0" offset="0">
        <phase duration="80" state="G"/>
        <phase duration="5"  state="y"/>
        <phase duration="5"  state="r"/>
    </tlLogic>
    <tlLogic id="1780527829" type="static" programID="0" offset="0">
        <phase duration="82" state="G"/>
        <phase duration="3"  state="y"/>
        <phase duration="5"  state="r"/>
    </tlLogic>
    <tlLogic id="1780527830" type="static" programID="0" offset="0">
        <phase duration="80" state="G"/>
        <phase duration="5"  state="y"/>
        <phase duration="5"  state="r"/>
    </tlLogic>
    <tlLogic id="1780527831" type="static" programID="0" offset="0">
        <phase duration="82" state="G"/>
        <phase duration="3"  state="y"/>
        <phase duration="5"  state="r"/>
    </tlLogic>
    <tlLogic id="1780527834" type="static" programID="0" offset="0">
        <phase duration="82" state="G"/>
        <phase duration="3"  state="y"/>
        <phase duration="5"  state="r"/>
    </tlLogic>
    <tlLogic id="1780527836" type="static" programID="0" offset="0">
        <phase duration="82" state="GG"/>
        <phase duration="3"  state="yy"/>
        <phase duration="5"  state="rr"/>
    </tlLogic>
    <tlLogic id="1822701277" type="static" programID="0" offset="0">
        <phase duration="82" state="G"/>
        <phase duration="3"  state="y"/>
        <phase duration="5"  state="r"/>
    </tlLogic>
    <tlLogic id="1822701278" type="static" programID="0" offset="0">
        <phase duration="82" state="G"/>
        <phase duration="3"  state="y"/>
        <phase duration="5"  state="r"/>
    </tlLogic>
    <tlLogic id="1822701281" type="static" programID="0" offset="0">
        <phase duration="82" state="G"/>
        <phase duration="3"  state="y"/>
        <phase duration="5"  state="r"/>
    </tlLogic>
    <tlLogic id="1822701294" type="static" programID="0" offset="0">
        <phase duration="82" state="G"/>
        <phase duration="3"  state="y"/>
        <phase duration="5"  state="r"/>
    </tlLogic>
    <tlLogic id="1831015827" type="static" programID="0" offset="0">
        <phase duration="80" state="G"/>
        <phase duration="5"  state="y"/>
        <phase duration="5"  state="r"/>
    </tlLogic>
    <tlLogic id="1831015828" type="static" programID="0" offset="0">
        <phase duration="80" state="G"/>
        <phase duration="5"  state="y"/>
        <phase duration="5"  state="r"/>
    </tlLogic>
    <tlLogic id="1831015843" type="static" programID="0" offset="0">
        <phase duration="80" state="G"/>
        <phase duration="5"  state="y"/>
        <phase duration="5"  state="r"/>
    </tlLogic>
    <tlLogic id="1831015846" type="static" programID="0" offset="0">
        <phase duration="82" state="G"/>
        <phase duration="3"  state="y"/>
        <phase duration="5"  state="r"/>
    </tlLogic>
    <tlLogic id="1831279281" type="static" programID="0" offset="0">
        <phase duration="82" state="GgGg"/>
        <phase duration="3"  state="yyyy"/>
        <phase duration="5"  state="rrrr"/>
    </tlLogic>
    <tlLogic id="1831279284" type="static" programID="0" offset="0">
        <phase duration="82" state="GgGg"/>
        <phase duration="3"  state="yyyy"/>
        <phase duration="5"  state="rrrr"/>
    </tlLogic>
    <tlLogic id="1831279286" type="static" programID="0" offset="0">
        <phase duration="79" state="GG"/>
        <phase duration="6"  state="yy"/>
        <phase duration="5"  state="rr"/>
    </tlLogic>
    <tlLogic id="1831279288" type="static" programID="0" offset="0">
        <phase duration="79" state="GG"/>
        <phase duration="6"  state="yy"/>
        <phase duration="5"  state="rr"/>
    </tlLogic>
    <tlLogic id="1831279290" type="static" programID="0" offset="0">
        <phase duration="82" state="GgGg"/>
        <phase duration="3"  state="yyyy"/>
        <phase duration="5"  state="rrrr"/>
    </tlLogic>
    <tlLogic id="1831279301" type="static" programID="0" offset="0">
        <phase duration="79" state="GG"/>
        <phase duration="6"  state="yy"/>
        <phase duration="5"  state="rr"/>
    </tlLogic>
    <tlLogic id="1831279307" type="static" programID="0" offset="0">
        <phase duration="79" state="GG"/>
        <phase duration="6"  state="yy"/>
        <phase duration="5"  state="rr"/>
    </tlLogic>
    <tlLogic id="1831279330" type="static" programID="0" offset="0">
        <phase duration="80" state="G"/>
        <phase duration="5"  state="y"/>
        <phase duration="5"  state="r"/>
    </tlLogic>
    <tlLogic id="1831279333" type="static" programID="0" offset="0">
        <phase duration="82" state="G"/>
        <phase duration="3"  state="y"/>
        <phase duration="5"  state="r"/>
    </tlLogic>
    <tlLogic id="1831279337" type="static" programID="0" offset="0">
        <phase duration="79" state="GG"/>
        <phase duration="6"  state="yy"/>
        <phase duration="5"  state="rr"/>
    </tlLogic>
    <tlLogic id="1831279344" type="static" programID="0" offset="0">
        <phase duration="79" state="GG"/>
        <phase duration="6"  state="yy"/>
        <phase duration="5"  state="rr"/>
    </tlLogic>
    <tlLogic id="1831279351" type="static" programID="0" offset="0">
        <phase duration="82" state="G"/>
        <phase duration="3"  state="y"/>
        <phase duration="5"  state="r"/>
    </tlLogic>
    <tlLogic id="1831279376" type="static" programID="0" offset="0">
        <phase duration="82" state="G"/>
        <phase duration="3"  state="y"/>
        <phase duration="5"  state="r"/>
    </tlLogic>
    <tlLogic id="1831323568" type="static" programID="0" offset="0">
        <phase duration="79" state="GG"/>
        <phase duration="6"  state="yy"/>
        <phase duration="5"  state="rr"/>
    </tlLogic>
    <tlLogic id="1831323570" type="static" programID="0" offset="0">
        <phase duration="79" state="GG"/>
        <phase duration="6"  state="yy"/>
        <phase duration="5"  state="rr"/>
    </tlLogic>
    <tlLogic id="1831323572" type="static" programID="0" offset="0">
        <phase duration="82" state="GgGg"/>
        <phase duration="3"  state="yyyy"/>
        <phase duration="5"  state="rrrr"/>
    </tlLogic>
    <tlLogic id="1831323573" type="static" programID="0" offset="0">
        <phase duration="79" state="GG"/>
        <phase duration="6"  state="yy"/>
        <phase duration="5"  state="rr"/>
    </tlLogic>
    <tlLogic id="1831323574" type="static" programID="0" offset="0">
        <phase duration="79" state="GG"/>
        <phase duration="6"  state="yy"/>
        <phase duration="5"  state="rr"/>
    </tlLogic>
    <tlLogic id="1831323575" type="static" programID="0" offset="0">
        <phase duration="80" state="G"/>
        <phase duration="5"  state="y"/>
        <phase duration="5"  state="r"/>
    </tlLogic>
    <tlLogic id="1831777998" type="static" programID="0" offset="0">
        <phase duration="80" state="G"/>
        <phase duration="5"  state="y"/>
        <phase duration="5"  state="r"/>
    </tlLogic>
    <tlLogic id="1831778018" type="static" programID="0" offset="0">
        <phase duration="80" state="G"/>
        <phase duration="5"  state="y"/>
        <phase duration="5"  state="r"/>
    </tlLogic>
    <tlLogic id="1831778023" type="static" programID="0" offset="0">
        <phase duration="80" state="G"/>
        <phase duration="5"  state="y"/>
        <phase duration="5"  state="r"/>
    </tlLogic>
    <tlLogic id="1831839889" type="static" programID="0" offset="0">
        <phase duration="82" state="G"/>
        <phase duration="3"  state="y"/>
        <phase duration="5"  state="r"/>
    </tlLogic>
    <tlLogic id="1831839926" type="static" programID="0" offset="0">
        <phase duration="82" state="G"/>
        <phase duration="3"  state="y"/>
        <phase duration="5"  state="r"/>
    </tlLogic>
    <tlLogic id="1835771656" type="static" programID="0" offset="0">
        <phase duration="79" state="GG"/>
        <phase duration="6"  state="yy"/>
        <phase duration="5"  state="rr"/>
    </tlLogic>
    <tlLogic id="1835771660" type="static" programID="0" offset="0">
        <phase duration="79" state="GG"/>
        <phase duration="6"  state="yy"/>
        <phase duration="5"  state="rr"/>
    </tlLogic>
    <tlLogic id="1930606342" type="static" programID="0" offset="0">
        <phase duration="82" state="GgGg"/>
        <phase duration="3"  state="yyyy"/>
        <phase duration="5"  state="rrrr"/>
    </tlLogic>
    <tlLogic id="1930611235" type="static" programID="0" offset="0">
        <phase duration="42" state="GGgrrrGgg"/>
        <phase duration="3"  state="yyyrrryyy"/>
        <phase duration="42" state="rrrGGGrrr"/>
        <phase duration="3"  state="rrryyyrrr"/>
    </tlLogic>
    <tlLogic id="1930611241" type="static" programID="0" offset="0">
        <phase duration="82" state="GgGg"/>
        <phase duration="3"  state="yyyy"/>
        <phase duration="5"  state="rrrr"/>
    </tlLogic>
    <tlLogic id="1931339542" type="static" programID="0" offset="0">
        <phase duration="42" state="rrrGGGg"/>
        <phase duration="3"  state="rrryyyy"/>
        <phase duration="42" state="GGGrrrr"/>
        <phase duration="3"  state="yyyrrrr"/>
    </tlLogic>
    <tlLogic id="1931339543" type="static" programID="0" offset="0">
        <phase duration="39" state="rrrGGGgrrrGGGg"/>
        <phase duration="6"  state="rrryyyyrrryyyy"/>
        <phase duration="39" state="GGgrrrrGGgrrrr"/>
        <phase duration="6"  state="yyyrrrryyyrrrr"/>
    </tlLogic>
    <tlLogic id="1931339544" type="static" programID="0" offset="0">
        <phase duration="42" state="GGgrrrGg"/>
        <phase duration="3"  state="yyyrrryy"/>
        <phase duration="42" state="rrrGGGrr"/>
        <phase duration="3"  state="rrryyyrr"/>
    </tlLogic>
    <tlLogic id="1942907893" type="static" programID="0" offset="0">
        <phase duration="27" state="rrGggGr"/>
        <phase duration="3"  state="rryyyyr"/>
        <phase duration="27" state="GrrrrrG"/>
        <phase duration="3"  state="yrrrrry"/>
        <phase duration="27" state="GGrrGrr"/>
        <phase duration="3"  state="yyrryrr"/>
    </tlLogic>
    <tlLogic id="1943151433" type="static" programID="0" offset="0">
        <phase duration="42" state="GgrrrG"/>
        <phase duration="3"  state="yyrrry"/>
        <phase duration="42" state="rrGGGr"/>
        <phase duration="3"  state="rryyyr"/>
    </tlLogic>
    <tlLogic id="1990844733" type="static" programID="0" offset="0">
        <phase duration="82" state="G"/>
        <phase duration="3"  state="y"/>
        <phase duration="5"  state="r"/>
    </tlLogic>
    <tlLogic id="1990844735" type="static" programID="0" offset="0">
        <phase duration="82" state="G"/>
        <phase duration="3"  state="y"/>
        <phase duration="5"  state="r"/>
    </tlLogic>
    <tlLogic id="1990844736" type="static" programID="0" offset="0">
        <phase duration="82" state="G"/>
        <phase duration="3"  state="y"/>
        <phase duration="5"  state="r"/>
    </tlLogic>
    <tlLogic id="1990844737" type="static" programID="0" offset="0">
        <phase duration="82" state="GgGg"/>
        <phase duration="3"  state="yyyy"/>
        <phase duration="5"  state="rrrr"/>
    </tlLogic>
    <tlLogic id="1990844738" type="static" programID="0" offset="0">
        <phase duration="82" state="GgGg"/>
        <phase duration="3"  state="yyyy"/>
        <phase duration="5"  state="rrrr"/>
    </tlLogic>
    <tlLogic id="1990844739" type="static" programID="0" offset="0">
        <phase duration="82" state="G"/>
        <phase duration="3"  state="y"/>
        <phase duration="5"  state="r"/>
    </tlLogic>
    <tlLogic id="1993822966" type="static" programID="0" offset="0">
        <phase duration="82" state="GgGg"/>
        <phase duration="3"  state="yyyy"/>
        <phase duration="5"  state="rrrr"/>
    </tlLogic>
    <tlLogic id="1999195997" type="static" programID="0" offset="0">
        <phase duration="42" state="rrrrGgGgrrrrGGgg"/>
        <phase duration="3"  state="rrrryyyyrrrryyyy"/>
        <phase duration="42" state="GGggrrrrGGggrrrr"/>
        <phase duration="3"  state="yyyyrrrryyyyrrrr"/>
    </tlLogic>
    <tlLogic id="1999196007" type="static" programID="0" offset="0">
        <phase duration="82" state="GgGg"/>
        <phase duration="3"  state="yyyy"/>
        <phase duration="5"  state="rrrr"/>
    </tlLogic>
    <tlLogic id="1999196025" type="static" programID="0" offset="0">
        <phase duration="82" state="GgGg"/>
        <phase duration="3"  state="yyyy"/>
        <phase duration="5"  state="rrrr"/>
    </tlLogic>
    <tlLogic id="2053339251" type="static" programID="0" offset="0">
        <phase duration="79" state="GG"/>
        <phase duration="6"  state="yy"/>
        <phase duration="5"  state="rr"/>
    </tlLogic>
    <tlLogic id="2053339253" type="static" programID="0" offset="0">
        <phase duration="79" state="GG"/>
        <phase duration="6"  state="yy"/>
        <phase duration="5"  state="rr"/>
    </tlLogic>
    <tlLogic id="2053339255" type="static" programID="0" offset="0">
        <phase duration="79" state="GG"/>
        <phase duration="6"  state="yy"/>
        <phase duration="5"  state="rr"/>
    </tlLogic>
    <tlLogic id="2053339257" type="static" programID="0" offset="0">
        <phase duration="79" state="GG"/>
        <phase duration="6"  state="yy"/>
        <phase duration="5"  state="rr"/>
    </tlLogic>
    <tlLogic id="205732578" type="static" programID="0" offset="0">
        <phase duration="82" state="GG"/>
        <phase duration="3"  state="yy"/>
        <phase duration="5"  state="rr"/>
    </tlLogic>
    <tlLogic id="205735065" type="static" programID="0" offset="0">
        <phase duration="40" state="GGrrr"/>
        <phase duration="5"  state="yyrrr"/>
        <phase duration="40" state="rrGGG"/>
        <phase duration="5"  state="rryyy"/>
    </tlLogic>
    <tlLogic id="205742369" type="static" programID="0" offset="0">
        <phase duration="39" state="rrrGGGrrrGGG"/>
        <phase duration="6"  state="rrryyyrrryyy"/>
        <phase duration="39" state="GGggrrGGggrr"/>
        <phase duration="6"  state="yyyyrryyyyrr"/>
    </tlLogic>
    <tlLogic id="205744874" type="static" programID="0" offset="0">
        <phase duration="42" state="GGgrrrGgg"/>
        <phase duration="3"  state="yyyrrryyy"/>
        <phase duration="42" state="rrrGGGrrr"/>
        <phase duration="3"  state="rrryyyrrr"/>
    </tlLogic>
    <tlLogic id="205744875" type="static" programID="0" offset="0">
        <phase duration="39" state="GGrr"/>
        <phase duration="6"  state="yyrr"/>
        <phase duration="39" state="rrGG"/>
        <phase duration="6"  state="rryy"/>
    </tlLogic>
    <tlLogic id="205744877" type="static" programID="0" offset="0">
        <phase duration="39" state="GGGrr"/>
        <phase duration="6"  state="yyyrr"/>
        <phase duration="39" state="rrrGG"/>
        <phase duration="6"  state="rrryy"/>
    </tlLogic>
    <tlLogic id="206145062" type="static" programID="0" offset="0">
        <phase duration="39" state="GGGrr"/>
        <phase duration="6"  state="yyyrr"/>
        <phase duration="39" state="rrrGG"/>
        <phase duration="6"  state="rrryy"/>
    </tlLogic>
    <tlLogic id="206145063" type="static" programID="0" offset="0">
        <phase duration="42" state="GGrrr"/>
        <phase duration="3"  state="yyrrr"/>
        <phase duration="42" state="rrGGG"/>
        <phase duration="3"  state="rryyy"/>
    </tlLogic>
    <tlLogic id="21225833" type="static" programID="0" offset="0">
        <phase duration="39" state="GGGr"/>
        <phase duration="6"  state="yyyr"/>
        <phase duration="39" state="rrrG"/>
        <phase duration="6"  state="rrry"/>
    </tlLogic>
    <tlLogic id="21225854" type="static" programID="0" offset="0">
        <phase duration="39" state="GGGrr"/>
        <phase duration="6"  state="yyyrr"/>
        <phase duration="39" state="rrrGG"/>
        <phase duration="6"  state="rrryy"/>
    </tlLogic>
    <tlLogic id="21225900" type="static" programID="0" offset="0">
        <phase duration="39" state="rrrrGggGGg"/>
        <phase duration="6"  state="rrrryyyyyy"/>
        <phase duration="39" state="GGGGrrrrrr"/>
        <phase duration="6"  state="yyyyrrrrrr"/>
    </tlLogic>
    <tlLogic id="21225903" type="static" programID="0" offset="0">
        <phase duration="40" state="GGGGrrr"/>
        <phase duration="5"  state="yyyyrrr"/>
        <phase duration="40" state="GrrGGGg"/>
        <phase duration="5"  state="yrryyyy"/>
    </tlLogic>
    <tlLogic id="21225973" type="static" programID="0" offset="0">
        <phase duration="39" state="GGGrrr"/>