<?xml version="1.0" encoding="UTF-8"?>

<!-- generated on Thu Jun 13 21:59:57 2019 by Eclipse SUMO netconvert Version 1.2.0
<configuration xmlns:xsi="http://www.w3.org/2001/XMLSchema-instance" xsi:noNamespaceSchemaLocation="http://sumo.dlr.de/xsd/netconvertConfiguration.xsd">

    <input>
        <sumo-net-file value="milan.net.xml"/>
    </input>

    <output>
        <plain-output-prefix value="milan"/>
    </output>

    <processing>
        <geometry.max-grade.fix value="false"/>
        <offset.disable-normalization value="true"/>
        <lefthand value="false"/>
    </processing>

    <junctions>
        <no-turnarounds value="true"/>
        <junctions.corner-detail value="5"/>
        <junctions.limit-turn-speed value="5.5"/>
        <rectangular-lane-cut value="false"/>
    </junctions>

    <pedestrian>
        <walkingareas value="false"/>
    </pedestrian>

</configuration>
-->

<connections version="1.1" xmlns:xsi="http://www.w3.org/2001/XMLSchema-instance" xsi:noNamespaceSchemaLocation="http://sumo.dlr.de/xsd/connections_file.xsd">
    <connection from="-138712501#0" to="138712501#0" fromLane="0" toLane="0"/>

    <connection from="-138712501#1" to="-138712501#0" fromLane="0" toLane="0"/>
    <connection from="-138712501#1" to="138712501#1" fromLane="0" toLane="0"/>

    <connection from="-138712501#2" to="-543121742#6" fromLane="0" toLane="0"/>
    <connection from="-138712501#2" to="-138712501#1" fromLane="0" toLane="0"/>
    <connection from="-138712501#2" to="138712501#2" fromLane="0" toLane="0"/>

    <connection from="-142387176" to="-274932988" fromLane="0" toLane="0"/>
    <connection from="-142387176" to="142387176" fromLane="0" toLane="0"/>

    <connection from="-145593783#0" to="-23227652#1" fromLane="0" toLane="0"/>

    <connection from="-145593783#1" to="-145593783#0" fromLane="0" toLane="0"/>
    <connection from="-145593783#1" to="145593783#1" fromLane="0" toLane="0"/>

    <connection from="-145593783#2" to="-145593783#1" fromLane="0" toLane="0"/>
    <connection from="-145593783#2" to="145593783#2" fromLane="0" toLane="0"/>

    <connection from="-145593783#3" to="-145593783#2" fromLane="0" toLane="0"/>
    <connection from="-145593783#3" to="145593783#3" fromLane="0" toLane="0"/>

    <connection from="-147972360#0" to="276480212#0" fromLane="0" toLane="0"/>
    <connection from="-147972360#0" to="85847360#0" fromLane="0" toLane="0"/>
    <connection from="-147972360#0" to="147972360#0" fromLane="0" toLane="0"/>

    <connection from="-147972360#1" to="-147972360#0" fromLane="0" toLane="0"/>
    <connection from="-147972360#1" to="147972360#1" fromLane="0" toLane="0"/>

    <connection from="-148358570#0" to="148358570#0" fromLane="0" toLane="0"/>

    <connection from="-148358570#1" to="-148358570#0" fromLane="0" toLane="0"/>
    <connection from="-148358570#1" to="148358570#1" fromLane="0" toLane="0"/>

    <connection from="-148358576#0" to="182702311#0" fromLane="0" toLane="0"/>
    <connection from="-148358576#0" to="-164632187#1" fromLane="0" toLane="0"/>
    <connection from="-148358576#0" to="-286743397#1" fromLane="0" toLane="0"/>
    <connection from="-148358576#0" to="148358576#0" fromLane="0" toLane="0"/>

    <connection from="-148358576#1" to="-148358576#0" fromLane="0" toLane="0"/>
    <connection from="-148358576#1" to="148358576#1" fromLane="0" toLane="0"/>

    <connection from="-149762814" to="275480569" fromLane="0" toLane="0"/>
    <connection from="-149762814" to="149762814" fromLane="0" toLane="0"/>

    <connection from="-161126640#0" to="161126641#0" fromLane="0" toLane="0"/>
    <connection from="-161126640#0" to="161126640#0" fromLane="0" toLane="0"/>

    <connection from="-161126640#1" to="-161126640#0" fromLane="0" toLane="0"/>

    <connection from="-161126640#2" to="-161126640#1" fromLane="0" toLane="0"/>

    <connection from="-161126647#0" to="56379515#0" fromLane="0" toLane="0"/>
    <connection from="-161126647#0" to="-56349439#3" fromLane="0" toLane="0"/>
    <connection from="-161126647#0" to="-56349439#3" fromLane="1" toLane="1"/>

    <connection from="-161126647#1" to="-161126647#0" fromLane="0" toLane="0"/>
    <connection from="-161126647#1" to="-161126647#0" fromLane="1" toLane="1"/>
    <connection from="-161126647#1" to="161126647#1" fromLane="1" toLane="1"/>

    <connection from="-161786093#0" to="-276502534" fromLane="0" toLane="0"/>
    <connection from="-161786093#0" to="161786093#0" fromLane="0" toLane="0"/>

    <connection from="-161786093#1" to="-161786093#0" fromLane="0" toLane="0"/>
    <connection from="-161786093#1" to="161786093#1" fromLane="0" toLane="0"/>

    <connection from="-161786113#0" to="-286052722#1" fromLane="0" toLane="0"/>
    <connection from="-161786113#0" to="-286052722#1" fromLane="1" toLane="1"/>

    <connection from="-161786113#1" to="-161786113#0" fromLane="0" toLane="0"/>
    <connection from="-161786113#1" to="-161786113#0" fromLane="1" toLane="1"/>
    <connection from="-161786113#1" to="161786113#1" fromLane="1" toLane="1"/>

    <connection from="-161786113#2" to="-161786113#1" fromLane="0" toLane="0"/>
    <connection from="-161786113#2" to="-161786113#1" fromLane="1" toLane="1"/>
    <connection from="-161786113#2" to="161786113#2" fromLane="1" toLane="1"/>

    <connection from="-161826809#0" to="264430297#0" fromLane="0" toLane="0"/>
    <connection from="-161826809#0" to="264430297#0" fromLane="1" toLane="1"/>

    <connection from="-161826809#1" to="-161826809#0" fromLane="0" toLane="0"/>
    <connection from="-161826809#1" to="-161826809#0" fromLane="1" toLane="1"/>
    <connection from="-161826809#1" to="161826809#1" fromLane="1" toLane="1"/>

    <connection from="-162797936" to="162797939" fromLane="0" toLane="0"/>
    <connection from="-162797936" to="162797938#0" fromLane="0" toLane="0"/>
    <connection from="-162797936" to="162797936" fromLane="0" toLane="0"/>

    <connection from="-162797937" to="201608656#0" fromLane="0" toLane="0"/>
    <connection from="-162797937" to="162797937" fromLane="0" toLane="0"/>

    <connection from="-162797940#0" to="276501877#0" fromLane="0" toLane="0"/>
    <connection from="-162797940#0" to="-276506042#1" fromLane="0" toLane="0"/>
    <connection from="-162797940#0" to="162797940#0" fromLane="0" toLane="0"/>

    <connection from="-162797940#1" to="-162797940#0" fromLane="0" toLane="0"/>
    <connection from="-162797940#1" to="162797940#1" fromLane="0" toLane="0"/>

    <connection from="-162797944" to="-162797936" fromLane="0" toLane="0"/>
    <connection from="-162797944" to="162797944" fromLane="0" toLane="0"/>

    <connection from="-162797945" to="-162797940#1" fromLane="0" toLane="0"/>
    <connection from="-162797945" to="23807756" fromLane="0" toLane="0"/>
    <connection from="-162797945" to="162797945" fromLane="0" toLane="0"/>

    <connection from="-162797951" to="266477985#0" fromLane="0" toLane="0"/>
    <connection from="-162797951" to="-266477995#1" fromLane="0" toLane="0"/>
    <connection from="-162797951" to="162797951" fromLane="0" toLane="0"/>

    <connection from="-162797952#0" to="266477995#0" fromLane="0" toLane="0"/>

    <connection from="-162797952#1" to="246550096#7" fromLane="0" toLane="0"/>
    <connection from="-162797952#1" to="-162797952#0" fromLane="0" toLane="0"/>
    <connection from="-162797952#1" to="162797952#1" fromLane="0" toLane="0"/>

    <connection from="-162797953" to="264601129" fromLane="0" toLane="0"/>
    <connection from="-162797953" to="162797953" fromLane="0" toLane="0"/>

    <connection from="-164070459" to="164070435" fromLane="0" toLane="0"/>
    <connection from="-164070459" to="164070459" fromLane="0" toLane="0"/>

    <connection from="-164632187#0" to="-264609064" fromLane="0" toLane="0"/>
    <connection from="-164632187#0" to="272802063#0" fromLane="0" toLane="1"/>
    <connection from="-164632187#0" to="164632187#0" fromLane="0" toLane="0"/>

    <connection from="-164632187#1" to="-164632187#0" fromLane="0" toLane="0"/>
    <connection from="-164632187#1" to="164632187#1" fromLane="0" toLane="0"/>

    <connection from="-164632188" to="272795066" fromLane="0" toLane="0"/>
    <connection from="-164632188" to="164632188" fromLane="0" toLane="0"/>

    <connection from="-164701842#0" to="-264368357#1" fromLane="0" toLane="0"/>
    <connection from="-164701842#0" to="164701842#0" fromLane="0" toLane="0"/>

    <connection from="-164701842#1" to="-164701842#0" fromLane="0" toLane="0"/>
    <connection from="-164701842#1" to="164701842#1" fromLane="0" toLane="0"/>

    <connection from="-164701844#0" to="264363580#0" fromLane="0" toLane="0"/>
    <connection from="-164701844#0" to="-287018742#1" fromLane="0" toLane="0"/>
    <connection from="-164701844#0" to="164701844#0" fromLane="0" toLane="0"/>

    <connection from="-164701844#1" to="-164701844#0" fromLane="0" toLane="0"/>
    <connection from="-164701844#1" to="164701844#1" fromLane="0" toLane="0"/>

    <connection from="-164701844#2" to="-164701844#1" fromLane="0" toLane="0"/>
    <connection from="-164701844#2" to="164701844#2" fromLane="0" toLane="0"/>

    <connection from="-166616180#0" to="-275518488" fromLane="0" toLane="0"/>

    <connection from="-166616180#1" to="-166616180#0" fromLane="0" toLane="0"/>

    <connection from="-166623706#0" to="275518485#2" fromLane="0" toLane="0"/>
    <connection from="-166623706#0" to="166623706#0" fromLane="0" toLane="0"/>

    <connection from="-166623706#1" to="-166623706#0" fromLane="0" toLane="0"/>
    <connection from="-166623706#1" to="166623706#1" fromLane="0" toLane="0"/>

    <connection from="-168734407" to="276503426#0" fromLane="0" toLane="0"/>
    <connection from="-168734407" to="276503426#0" fromLane="1" toLane="1"/>
    <connection from="-168734407" to="33436068#0" fromLane="1" toLane="0"/>
    <connection from="-168734407" to="168734407" fromLane="1" toLane="1"/>

    <connection from="-168773897#0" to="37335403#0" fromLane="0" toLane="0"/>
    <connection from="-168773897#0" to="-24319228#2" fromLane="0" toLane="0"/>
    <connection from="-168773897#0" to="-274934659#1" fromLane="0" toLane="0"/>
    <connection from="-168773897#0" to="168773897#0" fromLane="0" toLane="0"/>

    <connection from="-168773897#1" to="-168773897#0" fromLane="0" toLane="0"/>
    <connection from="-168773897#1" to="168773897#1" fromLane="0" toLane="0"/>

    <connection from="-171201469#0" to="330841916#0" fromLane="0" toLane="0"/>
    <connection from="-171201469#0" to="171201469#0" fromLane="0" toLane="0"/>

    <connection from="-171201469#1" to="171201475#2" fromLane="0" toLane="0"/>
    <connection from="-171201469#1" to="-171201469#0" fromLane="0" toLane="0"/>
    <connection from="-171201469#1" to="-171201475#1" fromLane="0" toLane="0"/>
    <connection from="-171201469#1" to="171201469#1" fromLane="0" toLane="0"/>

    <connection from="-171201469#2" to="-443339649#0" fromLane="0" toLane="0"/>
    <connection from="-171201469#2" to="-171201469#1" fromLane="0" toLane="0"/>
    <connection from="-171201469#2" to="443339649#1" fromLane="0" toLane="0"/>
    <connection from="-171201469#2" to="171201469#2" fromLane="0" toLane="0"/>

    <connection from="-171201472#0" to="171201472#0" fromLane="0" toLane="0"/>

    <connection from="-171201472#1" to="-171201472#0" fromLane="0" toLane="0"/>
    <connection from="-171201472#1" to="171201472#1" fromLane="0" toLane="0"/>

    <connection from="-171201475#0" to="171201475#0" fromLane="0" toLane="0"/>

    <connection from="-171201475#1" to="-443339638" fromLane="0" toLane="0"/>
    <connection from="-171201475#1" to="-171201475#0" fromLane="0" toLane="0"/>
    <connection from="-171201475#1" to="171201475#1" fromLane="0" toLane="0"/>

    <connection from="-171201475#2" to="-171201469#0" fromLane="0" toLane="0"/>
    <connection from="-171201475#2" to="-171201475#1" fromLane="0" toLane="0"/>
    <connection from="-171201475#2" to="171201469#1" fromLane="0" toLane="0"/>
    <connection from="-171201475#2" to="171201475#2" fromLane="0" toLane="0"/>

    <connection from="-171463472#0" to="171463472#0" fromLane="0" toLane="0"/>

    <connection from="-171463472#1" to="-171463472#0" fromLane="0" toLane="0"/>
    <connection from="-171463472#1" to="375604172" fromLane="0" toLane="0"/>
    <connection from="-171463472#1" to="171463472#1" fromLane="0" toLane="0"/>

    <connection from="-171463472#2" to="-171463472#1" fromLane="0" toLane="0"/>
    <connection from="-171463472#2" to="171463472#2" fromLane="0" toLane="0"/>

    <connection from="-171463472#3" to="-171463472#2" fromLane="0" toLane="0"/>
    <connection from="-171463472#3" to="171463472#3" fromLane="0" toLane="0"/>

    <connection from="-171463472#4" to="-171463472#3" fromLane="0" toLane="0"/>
    <connection from="-171463472#4" to="171463472#4" fromLane="0" toLane="0"/>

    <connection from="-171463472#5" to="-543121743#6" fromLane="0" toLane="0"/>
    <connection from="-171463472#5" to="-171463472#4" fromLane="0" toLane="0"/>
    <connection from="-171463472#5" to="456228112#0" fromLane="0" toLane="0"/>
    <connection from="-171463472#5" to="171463472#5" fromLane="0" toLane="0"/>

    <connection from="-171463472#6" to="-56349439#2" fromLane="0" toLane="0"/>
    <connection from="-171463472#6" to="-171463472#5" fromLane="0" toLane="0"/>
    <connection from="-171463472#6" to="56349439#3" fromLane="0" toLane="1"/>
    <connection from="-171463472#6" to="171463472#6" fromLane="0" toLane="0"/>

    <connection from="-171951782#0" to="171951778#0" fromLane="0" toLane="0"/>
    <connection from="-171951782#0" to="-148358576#1" fromLane="0" toLane="0"/>
    <connection from="-171951782#0" to="171951782#0" fromLane="0" toLane="0"/>

    <connection from="-171951782#1" to="-171951782#0" fromLane="0" toLane="0"/>
    <connection from="-171951782#1" to="171951782#1" fromLane="0" toLane="0"/>

    <connection from="-171951783#0" to="232797616#0" fromLane="0" toLane="0"/>
    <connection from="-171951783#0" to="-171951782#1" fromLane="0" toLane="0"/>
    <connection from="-171951783#0" to="171951783#0" fromLane="0" toLane="0"/>

    <connection from="-171951783#1" to="-171951783#0" fromLane="0" toLane="0"/>
    <connection from="-171951783#1" to="171951783#1" fromLane="0" toLane="0"/>

    <connection from="-172253739#0" to="275480563#0" fromLane="0" toLane="0"/>
    <connection from="-172253739#0" to="172253739#0" fromLane="0" toLane="0"/>

    <connection from="-172253739#1" to="-172253739#0" fromLane="0" toLane="0"/>
    <connection from="-172253739#1" to="-577444380" fromLane="0" toLane="0"/>
    <connection from="-172253739#1" to="172253739#1" fromLane="0" toLane="0"/>

    <connection from="-172253739#2" to="-172253739#1" fromLane="0" toLane="0"/>
    <connection from="-172253739#2" to="172253739#2" fromLane="0" toLane="0"/>

    <connection from="-172708667" to="273256521" fromLane="0" toLane="0"/>
    <connection from="-172708667" to="172708666" fromLane="0" toLane="0"/>
    <connection from="-172708667" to="172708667" fromLane="0" toLane="0"/>

    <connection from="-172819166#0" to="-273367407#1" fromLane="0" toLane="0"/>
    <connection from="-172819166#0" to="172819166#0" fromLane="0" toLane="0"/>

    <connection from="-172819166#1" to="-172819166#0" fromLane="0" toLane="0"/>
    <connection from="-172819166#1" to="172819166#1" fromLane="0" toLane="0"/>

    <connection from="-173087835#0" to="173087855" fromLane="0" toLane="0"/>
    <connection from="-173087835#0" to="173087835#0" fromLane="0" toLane="0"/>

    <connection from="-173087835#1" to="-173087835#0" fromLane="0" toLane="0"/>
    <connection from="-173087835#1" to="173087835#1" fromLane="0" toLane="0"/>

    <connection from="-181919709" to="-272783623#1" fromLane="0" toLane="0"/>
    <connection from="-181919709" to="111767993#0" fromLane="0" toLane="1"/>
    <connection from="-181919709" to="181919709" fromLane="0" toLane="0"/>

    <connection from="-182702311#0" to="-164632187#1" fromLane="0" toLane="0"/>
    <connection from="-182702311#0" to="-286743397#1" fromLane="0" toLane="0"/>
    <connection from="-182702311#0" to="148358576#0" fromLane="0" toLane="0"/>
    <connection from="-182702311#0" to="182702311#0" fromLane="0" toLane="0"/>

    <connection from="-182702311#1" to="-182702311#0" fromLane="0" toLane="0"/>
    <connection from="-182702311#1" to="182702311#1" fromLane="0" toLane="0"/>

    <connection from="-182703533" to="-147972360#1" fromLane="0" toLane="0"/>
    <connection from="-182703533" to="-276479956#1" fromLane="0" toLane="0"/>
    <connection from="-182703533" to="182703533" fromLane="0" toLane="0"/>

    <connection from="-182703534" to="182703528#0" fromLane="0" toLane="0"/>
    <connection from="-182703534" to="182703534" fromLane="0" toLane="0"/>

    <connection from="-182781114#0" to="257781733#0" fromLane="0" toLane="0"/>
    <connection from="-182781114#0" to="-264430310" fromLane="0" toLane="0"/>
    <connection from="-182781114#0" to="182781114#0" fromLane="0" toLane="0"/>

    <connection from="-182781114#1" to="-182781114#0" fromLane="0" toLane="0"/>
    <connection from="-182781114#1" to="182781114#1" fromLane="0" toLane="0"/>

    <connection from="-182781116" to="-286744545#1" fromLane="0" toLane="0"/>

    <connection from="-183876912" to="183874242#0" fromLane="0" toLane="0"/>
    <connection from="-183876912" to="137134710#0" fromLane="0" toLane="0"/>
    <connection from="-183876912" to="183876912" fromLane="0" toLane="0"/>

    <connection from="-183897700#0" to="264284685#0" fromLane="0" toLane="0"/>
    <connection from="-183897700#0" to="183897700#0" fromLane="0" toLane="0"/>

    <connection from="-183897700#1" to="-183897700#0" fromLane="0" toLane="0"/>
    <connection from="-183897700#1" to="183897700#1" fromLane="0" toLane="0"/>

    <connection from="-189272421#0" to="-275480570" fromLane="0" toLane="0"/>

    <connection from="-189272421#1" to="-189272421#0" fromLane="0" toLane="0"/>
    <connection from="-189272421#1" to="189272421#1" fromLane="0" toLane="0"/>

    <connection from="-189272422#0" to="145593786#0" fromLane="0" toLane="0"/>
    <connection from="-189272422#0" to="-275513921" fromLane="0" toLane="0"/>
    <connection from="-189272422#0" to="286707283#0" fromLane="0" toLane="0"/>
    <connection from="-189272422#0" to="189272422#0" fromLane="0" toLane="0"/>

    <connection from="-189272422#1" to="-189272422#0" fromLane="0" toLane="0"/>
    <connection from="-189272422#1" to="189272422#1" fromLane="0" toLane="0"/>

    <connection from="-189272429" to="-189272422#1" fromLane="0" toLane="0"/>

    <connection from="-189272430" to="-443251775#1" fromLane="0" toLane="0"/>

    <connection from="-194011454#0" to="-274988315#1" fromLane="0" toLane="0"/>

    <connection from="-194011454#1" to="-194011454#0" fromLane="0" toLane="0"/>
    <connection from="-194011454#1" to="194011454#1" fromLane="0" toLane="0"/>

    <connection from="-194011461" to="274988315#0" fromLane="0" toLane="0"/>
    <connection from="-194011461" to="8423864#0" fromLane="0" toLane="0"/>
    <connection from="-194011461" to="194011461" fromLane="0" toLane="0"/>

    <connection from="-194557166" to="264601150#0" fromLane="0" toLane="0"/>
    <connection from="-194557166" to="194557166" fromLane="0" toLane="0"/>

    <connection from="-203168106" to="-264609063" fromLane="0" toLane="0"/>
    <connection from="-203168106" to="264609066" fromLane="0" toLane="0"/>
    <connection from="-203168106" to="203168106" fromLane="0" toLane="0"/>

    <connection from="-207295494" to="207295494" fromLane="0" toLane="0"/>

    <connection from="-207299777" to="207299777" fromLane="0" toLane="0"/>

    <connection from="-207314268" to="207314268" fromLane="0" toLane="0"/>

    <connection from="-223689684" to="25092299#0" fromLane="0" toLane="0"/>
    <connection from="-223689684" to="223689684" fromLane="0" toLane="0"/>

    <connection from="-225304807" to="274984047" fromLane="0" toLane="0"/>
    <connection from="-225304807" to="225304807" fromLane="0" toLane="0"/>

    <connection from="-225304808" to="-225304809" fromLane="0" toLane="0"/>

    <connection from="-225304809" to="-225304807" fromLane="0" toLane="0"/>

    <connection from="-23227427" to="23227426" fromLane="0" toLane="0"/>
    <connection from="-23227427" to="23227427" fromLane="0" toLane="0"/>

    <connection from="-23227652#0" to="96017784" fromLane="0" toLane="0"/>
    <connection from="-23227652#0" to="23227652#0" fromLane="0" toLane="0"/>

    <connection from="-23227652#1" to="-23227652#0" fromLane="0" toLane="0"/>
    <connection from="-23227652#1" to="23227652#1" fromLane="0" toLane="0"/>

    <connection from="-23227667" to="274977228" fromLane="0" toLane="0"/>
    <connection from="-23227667" to="23227667" fromLane="0" toLane="0"/>

    <connection from="-23263462#0" to="274074316" fromLane="0" toLane="0"/>
    <connection from="-23263462#0" to="4683828" fromLane="0" toLane="0"/>
    <connection from="-23263462#0" to="23263462#0" fromLane="0" toLane="0"/>

    <connection from="-23263462#1" to="-23263462#0" fromLane="0" toLane="0"/>
    <connection from="-23263462#1" to="23263462#1" fromLane="0" toLane="0"/>

    <connection from="-233263972" to="-273449416#1" fromLane="0" toLane="0"/>
    <connection from="-233263972" to="137135363#0" fromLane="0" toLane="0"/>
    <connection from="-233263972" to="233263972" fromLane="0" toLane="0"/>

    <connection from="-235640906" to="-274938341" fromLane="0" toLane="0"/>
    <connection from="-235640906" to="235640906" fromLane="0" toLane="0"/>

    <connection from="-23820762" to="264609054" fromLane="0" toLane="0"/>
    <connection from="-23820762" to="-162797952#1" fromLane="0" toLane="0"/>
    <connection from="-23820762" to="23820762" fromLane="0" toLane="0"/>

    <connection from="-239283965#0" to="-290131737" fromLane="0" toLane="0"/>
    <connection from="-239283965#0" to="291307470" fromLane="0" toLane="0"/>
    <connection from="-239283965#0" to="239283965#0" fromLane="0" toLane="0"/>

    <connection from="-239283965#1" to="-239283965#0" fromLane="0" toLane="0"/>
    <connection from="-239283965#1" to="239283965#1" fromLane="0" toLane="0"/>

    <connection from="-239546828#0" to="-263429442#1" fromLane="0" toLane="0"/>
    <connection from="-239546828#0" to="36873327#0" fromLane="0" toLane="0"/>
    <connection from="-239546828#0" to="239546828#0" fromLane="0" toLane="0"/>

    <connection from="-239546828#1" to="-239546828#0" fromLane="0" toLane="0"/>
    <connection from="-239546828#1" to="239546828#1" fromLane="0" toLane="0"/>

    <connection from="-239929864#0" to="273446960#0" fromLane="0" toLane="0"/>
    <connection from="-239929864#0" to="239929864#0" fromLane="0" toLane="0"/>

    <connection from="-239929864#1" to="273446962#2" fromLane="0" toLane="0"/>
    <connection from="-239929864#1" to="-239929864#0" fromLane="0" toLane="0"/>
    <connection from="-239929864#1" to="239929864#1" fromLane="0" toLane="0"/>

    <connection from="-239934579#0" to="239934578" fromLane="0" toLane="0"/>
    <connection from="-239934579#0" to="239934579#0" fromLane="0" toLane="0"/>

    <connection from="-239934579#1" to="-239934579#0" fromLane="0" toLane="0"/>
    <connection from="-239934579#1" to="239934579#1" fromLane="0" toLane="0"/>

    <connection from="-240054800" to="-5110311#1" fromLane="0" toLane="0"/>

    <connection from="-240054801" to="5110310" fromLane="0" toLane="0"/>
    <connection from="-240054801" to="-240054800" fromLane="0" toLane="0"/>
    <connection from="-240054801" to="240054801" fromLane="0" toLane="0"/>

    <connection from="-240243318" to="23227528#1" fromLane="0" toLane="0"/>
    <connection from="-240243318" to="240243318" fromLane="0" toLane="0"/>

    <connection from="-24264040" to="32322872#0" fromLane="0" toLane="0"/>
    <connection from="-24264040" to="264284743" fromLane="0" toLane="0"/>
    <connection from="-24264040" to="-36873328#1" fromLane="0" toLane="0"/>
    <connection from="-24264040" to="-264284773" fromLane="0" toLane="1"/>
    <connection from="-24264040" to="24264040" fromLane="0" toLane="0"/>

    <connection from="-24319228#0" to="-235640906" fromLane="0" toLane="0"/>
    <connection from="-24319228#0" to="24319228#0" fromLane="0" toLane="0"/>

    <connection from="-24319228#1" to="-24319228#0" fromLane="0" toLane="0"/>
    <connection from="-24319228#1" to="24319228#1" fromLane="0" toLane="0"/>

    <connection from="-24319228#2" to="235639312" fromLane="0" toLane="0"/>
    <connection from="-24319228#2" to="-24319228#1" fromLane="0" toLane="0"/>
    <connection from="-24319228#2" to="24319228#2" fromLane="0" toLane="0"/>

    <connection from="-24606605" to="274988314" fromLane="0" toLane="0"/>
    <connection from="-24606605" to="24606605" fromLane="0" toLane="0"/>

    <connection from="-24606641#0" to="275479739" fromLane="0" toLane="0"/>
    <connection from="-24606641#0" to="24606641#0" fromLane="0" toLane="0"/>

    <connection from="-24606641#1" to="-24606641#0" fromLane="0" toLane="0"/>
    <connection from="-24606641#1" to="24606641#1" fromLane="0" toLane="0"/>

    <connection from="-246550004#0" to="201608656#1" fromLane="0" toLane="0"/>
    <connection from="-246550004#0" to="246550004#0" fromLane="0" toLane="0"/>

    <connection from="-246550004#1" to="-246550004#0" fromLane="0" toLane="0"/>
    <connection from="-246550004#1" to="246468862#1" fromLane="0" toLane="0"/>
    <connection from="-246550004#1" to="246550004#1" fromLane="0" toLane="0"/>

    <connection from="-246550004#2" to="279991745#1" fromLane="0" toLane="0"/>
    <connection from="-246550004#2" to="-246550004#1" fromLane="0" toLane="0"/>
    <connection from="-246550004#2" to="246550004#2" fromLane="0" toLane="0"/>

    <connection from="-246550004#3" to="-246550004#2" fromLane="0" toLane="0"/>
    <connection from="-246550004#3" to="44051425#1" fromLane="0" toLane="0"/>
    <connection from="-246550004#3" to="246550004#3" fromLane="0" toLane="0"/>

    <connection from="-246550004#4" to="-246550004#3" fromLane="0" toLane="0"/>
    <connection from="-246550004#4" to="246550004#4" fromLane="0" toLane="0"/>

    <connection from="-246550004#5" to="-246550004#4" fromLane="0" toLane="0"/>
    <connection from="-246550004#5" to="246550004#5" fromLane="0" toLane="0"/>

    <connection from="-246550004#6" to="246550003#0" fromLane="0" toLane="0"/>
    <connection from="-246550004#6" to="-246550004#5" fromLane="0" toLane="0"/>
    <connection from="-246550004#6" to="246550004#6" fromLane="0" toLane="0"/>

    <connection from="-246550004#7" to="482872379#4" fromLane="0" toLane="0"/>
    <connection from="-246550004#7" to="-246550004#6" fromLane="0" toLane="0"/>
    <connection from="-246550004#7" to="246550004#7" fromLane="0" toLane="0"/>

    <connection from="-246550004#8" to="-246550004#7" fromLane="0" toLane="0"/>
    <connection from="-246550004#8" to="246550004#8" fromLane="0" toLane="0"/>

    <connection from="-246550259" to="246545395#0" fromLane="0" toLane="0"/>
    <connection from="-246550259" to="246550259" fromLane="0" toLane="0"/>

    <connection from="-24815663" to="24815663" fromLane="0" toLane="0"/>

    <connection from="-250732284" to="250732283#0" fromLane="0" toLane="0"/>
    <connection from="-250732284" to="250732283#0" fromLane="0" toLane="1"/>
    <connection from="-250732284" to="250732283#0" fromLane="0" toLane="2"/>

    <connection from="-25092308#0" to="-330841916#7" fromLane="0" toLane="0"/>
    <connection from="-25092308#0" to="25092308#0" fromLane="0" toLane="0"/>

    <connection from="-25092308#1" to="-25092308#0" fromLane="0" toLane="0"/>
    <connection from="-25092308#1" to="-678496464" fromLane="0" toLane="0"/>
    <connection from="-25092308#1" to="25092308#1" fromLane="0" toLane="0"/>

    <connection from="-251074942#0" to="251074942#0" fromLane="0" toLane="0"/>

    <connection from="-251074942#1" to="-251074942#0" fromLane="0" toLane="0"/>
    <connection from="-251074942#1" to="251074942#1" fromLane="0" toLane="0"/>

    <connection from="-252421934" to="-252421935" fromLane="0" toLane="0"/>

    <connection from="-252421935" to="-275186716" fromLane="0" toLane="0"/>

    <connection from="-255726907" to="4018782#0" fromLane="0" toLane="0"/>
    <connection from="-255726907" to="4018782#0" fromLane="0" toLane="1"/>
    <connection from="-255726907" to="255726907" fromLane="0" toLane="0"/>

    <connection from="-257776626" to="-286743396" fromLane="0" toLane="0"/>
    <connection from="-257776626" to="257776621#0" fromLane="0" toLane="1"/>
    <connection from="-257776626" to="257776626" fromLane="0" toLane="0"/>

    <connection from="-259925983" to="41438750#2" fromLane="0" toLane="0"/>
    <connection from="-259925983" to="259925983" fromLane="0" toLane="0"/>

    <connection from="-259925984" to="201608656#3" fromLane="0" toLane="0"/>
    <connection from="-259925984" to="259925984" fromLane="0" toLane="0"/>

    <connection from="-260129467" to="41707321#1" fromLane="0" toLane="0"/>
    <connection from="-260129467" to="260129467" fromLane="0" toLane="0"/>

    <connection from="-260132590" to="-260132591#0" fromLane="0" toLane="0"/>
    <connection from="-260132590" to="260132591#1" fromLane="0" toLane="0"/>
    <connection from="-260132590" to="260132590" fromLane="0" toLane="0"/>

    <connection from="-260132591#0" to="23820501#1" fromLane="0" toLane="0"/>
    <connection from="-260132591#0" to="260132591#0" fromLane="0" toLane="0"/>

    <connection from="-260132591#1" to="260132590" fromLane="0" toLane="0"/>
    <connection from="-260132591#1" to="-260132591#0" fromLane="0" toLane="0"/>
    <connection from="-260132591#1" to="260132591#1" fromLane="0" toLane="0"/>

    <connection from="-260132591#2" to="260132592" fromLane="0" toLane="0"/>
    <connection from="-260132591#2" to="-260132591#1" fromLane="0" toLane="0"/>