<?xml version="1.0" encoding="UTF-8"?>

<!-- generated on Sat Nov 10 13:10:35 2018 by Eclipse SUMO duarouter Version 60efd76
<configuration xmlns:xsi="http://www.w3.org/2001/XMLSchema-instance" xsi:noNamespaceSchemaLocation="http://sumo.dlr.de/xsd/duarouterConfiguration.xsd">

    <input>
        <net-file value="semaforo.net.xml"/>
        <route-files value="trips.trips.xml"/>
    </input>

    <output>
        <output-file value="semaforoSN.rou.xml"/>
        <alternatives-output value="semaforoSN.rou.alt.xml"/>
    </output>

    <processing>
        <ignore-errors value="true"/>
    </processing>

    <time>
        <begin value="0"/>
        <end value="3600"/>
    </time>

    <report>
        <no-warnings value="true"/>
        <no-step-log value="true"/>
    </report>

</configuration>
-->

<routes xmlns:xsi="http://www.w3.org/2001/XMLSchema-instance" xsi:noNamespaceSchemaLocation="http://sumo.dlr.de/xsd/routes_file.xsd">
    <vehicle id="route0" depart="0.00">
        <route edges="34894793#0 -34894793#0 396555616#0 396555616#1"/>
    </vehicle>
    <vehicle id="route1" depart="1.00">
        <route edges="396555616#0 -396555616#0 34894793#0 34894793#1"/>
    </vehicle>
    <vehicle id="route2" depart="2.00">
        <route edges="-142497502#1 142497502#1 142497502#2 -396555616#0"/>
    </vehicle>
    <vehicle id="route3" depart="3.00">
        <route edges="-34894793#0 396555616#0 -142497502#2 -142497502#1"/>
    </vehicle>
    <vehicle id="route4" depart="4.00">
        <route edges="-396555616#0 396555616#0 -142497502#2 -142497502#1"/>
    </vehicle>
    <vehicle id="route5" depart="5.00">
        <route edges="142497502#2 -396555616#0 34894793#0 -34894793#0"/>
    </vehicle>
    <vehicle id="route6" depart="6.00">
        <route edges="-142497502#1 142497502#1 142497502#2 -396555616#0 34894793#0 -34894793#0"/>
    </vehicle>
    <vehicle id="route7" depart="7.00">
        <route edges="-396555616#1 -396555616#0"/>
    </vehicle>
    <vehicle id="route8" depart="8.00">
        <route edges="-34894793#0 396555616#0 -142497502#2 -142497502#1 -142497502#0"/>
    </vehicle>
    <vehicle id="route9" depart="9.00">
        <route edges="142497502#1 142497502#2 396555616#1"/>
    </vehicle>
    <vehicle id="route10" depart="10.00">
        <route edges="-142497502#3 -396555616#0 34894793#0"/>
    </vehicle>
    <vehicle id="route11" depart="11.00">
        <route edges="-142497502#1 142497502#1 142497502#2 142497502#3"/>
    </vehicle>
    <vehicle id="route12" depart="12.00">
        <route edges="-142497502#1 142497502#1"/>
    </vehicle>
    <vehicle id="route13" depart="13.00">
        <route edges="396555616#0 -142497502#2 -142497502#1 142497502#1"/>
    </vehicle>
    <vehicle id="route14" depart="14.00">
        <route edges="142497502#1 -142497502#1 -142497502#0"/>
    </vehicle>
    <vehicle id="route15" depart="15.00">
        <route edges="396555616#0 -396555616#0 34894793#0 -34894793#0"/>
    </vehicle>
    <vehicle id="route16" depart="16.00">
        <route edges="-396555616#0 396555616#0 -142497502#2 -142497502#1"/>
    </vehicle>
    <vehicle id="route17" depart="17.00">
        <route edges="34894793#0"/>
    </vehicle>
    <vehicle id="route18" depart="18.00">
        <route edges="142497502#1 142497502#2 -396555616#0 34894793#0"/>
    </vehicle>
    <vehicle id="route19" depart="19.00">
        <route edges="142497502#1 142497502#2 -396555616#0"/>
    </vehicle>
    <vehicle id="route20" depart="20.00">
        <route edges="-34894793#0 396555616#0 -142497502#2"/>
    </vehicle>
    <vehicle id="route21" depart="21.00">
        <route edges="142497502#0 142497502#1 142497502#2 -396555616#0 34894793#0"/>
    </vehicle>
    <vehicle id="route22" depart="22.00">
        <route edges="142497502#2 -142497502#2 -142497502#1 -142497502#0"/>
    </vehicle>
    <vehicle id="route23" depart="23.00">
        <route edges="396555616#0 -142497502#2"/>
    </vehicle>
    <vehicle id="route24" depart="24.00">
        <route edges="-142497502#3 -142497502#2 142497502#2"/>
    </vehicle>
    <vehicle id="route25" depart="25.00">
        <route edges="396555616#0 -142497502#2"/>
    </vehicle>
    <vehicle id="route26" depart="26.00">
        <route edges="-396555616#1 -142497502#2"/>
    </vehicle>
    <vehicle id="route27" depart="27.00">
        <route edges="34894793#0 -34894793#0 396555616#0 -142497502#2 -142497502#1 -142497502#0"/>
    </vehicle>
    <vehicle id="route28" depart="28.00">
        <route edges="396555616#0 -396555616#0 34894793#0 -34894793#0"/>
    </vehicle>
    <vehicle id="route29" depart="29.00">
        <route edges="142497502#1 142497502#2 -396555616#0 396555616#0"/>
    </vehicle>
    <vehicle id="route30" depart="30.00">
        <route edges="142497502#2 -396555616#0"/>
    </vehicle>
    <vehicle id="route31" depart="31.00">
        <route edges="-396555616#1 -396555616#0 34894793#0"/>
    </vehicle>
    <vehicle id="route32" depart="32.00">
        <route edges="-142497502#1 142497502#1 142497502#2 -396555616#0 34894793#0 34894793#1"/>
    </vehicle>
    <vehicle id="route33" depart="33.00">
        <route edges="34894793#0 -34894793#0 396555616#0 -142497502#2 -142497502#1 142497502#1"/>
    </vehicle>
    <vehicle id="route34" depart="34.00">
        <route edges="-396555616#1 -396555616#0 34894793#0 34894793#1"/>
    </vehicle>
    <vehicle id="route35" depart="35.00">
        <route edges="142497502#2 -142497502#2 -142497502#1"/>
    </vehicle>
    <vehicle id="route36" depart="36.00">
        <route edges="396555616#0 -396555616#0"/>
    </vehicle>
    <vehicle id="route37" depart="37.00">
        <route edges="-142497502#1 142497502#1 142497502#2 -396555616#0 34894793#0"/>
    </vehicle>
    <vehicle id="route38" depart="38.00">
        <route edges="-142497502#1 -142497502#0"/>
    </vehicle>
    <vehicle id="route39" depart="39.00">
        <route edges="-34894793#0 396555616#0 396555616#1"/>
    </vehicle>
    <vehicle id="route40" depart="40.00">
        <route edges="142497502#1 -142497502#1 -142497502#0"/>
    </vehicle>
    <vehicle id="route41" depart="41.00">
        <route edges="-396555616#0"/>
    </vehicle>
    <vehicle id="route42" depart="42.00">
        <route edges="142497502#1 142497502#2 -142497502#2"/>
    </vehicle>
    <vehicle id="route43" depart="43.00">
        <route edges="-142497502#1 142497502#1 142497502#2"/>
    </vehicle>
    <vehicle id="route44" depart="44.00">
        <route edges="142497502#1"/>
    </vehicle>
    <vehicle id="route45" depart="45.00">
        <route edges="142497502#2 142497502#3"/>
    </vehicle>
    <vehicle id="route46" depart="46.00">
        <route edges="-396555616#0 396555616#0 396555616#1"/>
    </vehicle>
    <vehicle id="route47" depart="47.00">
        <route edges="-142497502#2 142497502#2 396555616#1"/>
    </vehicle>
    <vehicle id="route48" depart="48.00">
        <route edges="142497502#0 142497502#1 142497502#2 -142497502#2"/>
    </vehicle>
    <vehicle id="route49" depart="49.00">
        <route edges="-34894793#0 396555616#0 -396555616#0"/>
    </vehicle>
    <vehicle id="route50" depart="50.00">
        <route edges="142497502#2 -142497502#2"/>
    </vehicle>
    <vehicle id="route51" depart="51.00">
        <route edges="142497502#2 -396555616#0 34894793#0"/>
    </vehicle>
    <vehicle id="route52" depart="52.00">
        <route edges="-396555616#0 396555616#0"/>
    </vehicle>
    <vehicle id="route53" depart="53.00">
        <route edges="-396555616#0 396555616#0 142497502#3"/>
    </vehicle>
    <vehicle id="route54" depart="54.00">
        <route edges="-142497502#3 -142497502#2 -142497502#1"/>
    </vehicle>
    <vehicle id="route55" depart="55.00">
        <route edges="-142497502#2 142497502#2 142497502#3"/>
    </vehicle>
    <vehicle id="route56" depart="56.00">
        <route edges="-142497502#2 142497502#2 396555616#1"/>
    </vehicle>
    <vehicle id="route57" depart="57.00">
        <route edges="142497502#2 -396555616#0 34894793#0"/>
    </vehicle>
    <vehicle id="route58" depart="58.00">
        <route edges="-34894793#1 -34894793#0 396555616#0 142497502#3"/>
    </vehicle>
    <vehicle id="route59" depart="59.00">
        <route edges="-142497502#1 142497502#1 142497502#2 -396555616#0"/>
    </vehicle>
    <vehicle id="route60" depart="60.00">
        <route edges="-142497502#3 -142497502#2"/>
    </vehicle>
    <vehicle id="route61" depart="61.00">
        <route edges="-142497502#2 142497502#2 -396555616#0 34894793#0"/>
    </vehicle>
    <vehicle id="route62" depart="62.00">
        <route edges="-396555616#1 -396555616#0 34894793#0"/>
    </vehicle>
    <vehicle id="route63" depart="63.00">
        <route edges="-142497502#1 -142497502#0"/>
    </vehicle>
    <vehicle id="route64" depart="64.00">
        <route edges="-142497502#1"/>
    </vehicle>
    <vehicle id="route65" depart="65.00">
        <route edges="-396555616#1 142497502#3"/>
    </vehicle>
    <vehicle id="route66" depart="66.00">
        <route edges="-142497502#1 142497502#1 142497502#2 -142497502#2"/>
    </vehicle>
    <vehicle id="route67" depart="67.00">
        <route edges="-142497502#3 396555616#1"/>
    </vehicle>
    <vehicle id="route68" depart="68.00">
        <route edges="-142497502#2 142497502#2 -396555616#0"/>
    </vehicle>
    <vehicle id="route69" depart="69.00">
        <route edges="-396555616#0 34894793#0 34894793#1"/>
    </vehicle>
    <vehicle id="route70" depart="70.00">
        <route edges="-396555616#0 34894793#0"/>
    </vehicle>
    <vehicle id="route71" depart="71.00">
        <route edges="-142497502#1 142497502#1 142497502#2"/>
    </vehicle>
    <vehicle id="route72" depart="72.00">
        <route edges="-142497502#2 142497502#2 -396555616#0 34894793#0 -34894793#0"/>
    </vehicle>
    <vehicle id="route73" depart="73.00">
        <route edges="-142497502#3 396555616#1"/>
    </vehicle>
    <vehicle id="route74" depart="74.00">
        <route edges="-396555616#1 -396555616#0 396555616#0"/>
    </vehicle>
    <vehicle id="route75" depart="75.00">
        <route edges="-396555616#0"/>
    </vehicle>
    <vehicle id="route76" depart="76.00">
        <route edges="-34894793#1 -34894793#0 396555616#0 142497502#3"/>
    </vehicle>
    <vehicle id="route77" depart="77.00">
        <route edges="-396555616#0 396555616#0"/>
    </vehicle>
    <vehicle id="route78" depart="78.00">
        <route edges="-34894793#1 -34894793#0 34894793#0"/>
    </vehicle>
    <vehicle id="route79" depart="79.00">
        <route edges="-396555616#0 396555616#0 -142497502#2"/>
    </vehicle>
    <vehicle id="route80" depart="80.00">
        <route edges="-142497502#3 -142497502#2 -142497502#1 -142497502#0"/>
    </vehicle>
    <vehicle id="route81" depart="81.00">
        <route edges="-396555616#1 -396555616#0 34894793#0 -34894793#0"/>
    </vehicle>
    <vehicle id="route82" depart="82.00">
        <route edges="-396555616#0 396555616#0 -142497502#2 -142497502#1 142497502#1"/>
    </vehicle>
    <vehicle id="route83" depart="83.00">
        <route edges="-142497502#2 -142497502#1"/>
    </vehicle>
    <vehicle id="route84" depart="84.00">
        <route edges="-34894793#1 -34894793#0 396555616#0 -396555616#0"/>
    </vehicle>
    <vehicle id="route85" depart="85.00">
        <route edges="396555616#0 -142497502#2 -142497502#1 -142497502#0"/>
    </vehicle>
    <vehicle id="route86" depart="86.00">
        <route edges="-396555616#0 396555616#0 -142497502#2 142497502#2"/>
    </vehicle>
    <vehicle id="route87" depart="87.00">
        <route edges="-142497502#3 -142497502#2"/>
    </vehicle>
    <vehicle id="route88" depart="88.00">
        <route edges="142497502#0 142497502#1 142497502#2 -396555616#0 34894793#0"/>
    </vehicle>
    <vehicle id="route89" depart="89.00">
        <route edges="-396555616#0 34894793#0 34894793#1"/>
    </vehicle>
    <vehicle id="route90" depart="90.00">
        <route edges="-34894793#1 -34894793#0 396555616#0 -142497502#2 -142497502#1 -142497502#0"/>
    </vehicle>
    <vehicle id="route91" depart="91.00">
        <route edges="-142497502#3 -142497502#2"/>
    </vehicle>
    <vehicle id="route92" depart="92.00">
        <route edges="142497502#2 -142497502#2"/>
    </vehicle>
    <vehicle id="route93" depart="93.00">
        <route edges="-142497502#2 -142497502#1 -142497502#0"/>
    </vehicle>
    <vehicle id="route94" depart="94.00">
        <route edges="396555616#0 -142497502#2 142497502#2"/>
    </vehicle>
    <vehicle id="route95" depart="95.00">
        <route edges="-34894793#1 -34894793#0"/>
    </vehicle>
    <vehicle id="route96" depart="96.00">
        <route edges="34894793#0 -34894793#0 396555616#0 -142497502#2 -142497502#1 -142497502#0"/>
    </vehicle>
    <vehicle id="route97" depart="97.00">
        <route edges="-142497502#3 -396555616#0"/>
    </vehicle>
    <vehicle id="route98" depart="98.00">
        <route edges="142497502#0 142497502#1 142497502#2 -396555616#0 34894793#0"/>
    </vehicle>
    <vehicle id="route99" depart="99.00">
        <route edges="-396555616#1 -142497502#2 -142497502#1 142497502#1"/>
    </vehicle>
    <vehicle id="route100" depart="100.00">
        <route edges="-142497502#2 142497502#2 396555616#1"/>
    </vehicle>
    <vehicle id="route101" depart="101.00">
        <route edges="-142497502#3 -142497502#2 -142497502#1 142497502#1"/>
    </vehicle>
    <vehicle id="route102" depart="102.00">
        <route edges="-142497502#2 142497502#2 -396555616#0 34894793#0 -34894793#0"/>
    </vehicle>
    <vehicle id="route103" depart="103.00">
        <route edges="-142497502#3 -396555616#0"/>
    </vehicle>
    <vehicle id="route104" depart="104.00">
        <route edges="-142497502#1 142497502#1 142497502#2 142497502#3"/>
    </vehicle>
    <vehicle id="route105" depart="105.00">
        <route edges="-396555616#0 34894793#0 -34894793#0"/>
    </vehicle>
    <vehicle id="route106" depart="106.00">
        <route edges="-396555616#0 396555616#0 -142497502#2 142497502#2"/>
    </vehicle>
    <vehicle id="route107" depart="107.00">
        <route edges="-34894793#1 -34894793#0"/>
    </vehicle>
    <vehicle id="route108" depart="108.00">
        <route edges="-142497502#2 142497502#2 -396555616#0"/>
    </vehicle>
    <vehicle id="route109" depart="109.00">
        <route edges="142497502#2 -142497502#2 -142497502#1 142497502#1"/>
    </vehicle>
    <vehicle id="route110" depart="110.00">
        <route edges="34894793#0 -34894793#0 396555616#0 -142497502#2 -142497502#1"/>
    </vehicle>
    <vehicle id="route111" depart="111.00">
        <route edges="142497502#0 -142497502#0"/>
    </vehicle>
    <vehicle id="route112" depart="112.00">
        <route edges="-396555616#0 396555616#0 -142497502#2 -142497502#1"/>
    </vehicle>
    <vehicle id="route113" depart="113.00">
        <route edges="-142497502#1 142497502#1 142497502#2 -396555616#0 396555616#0"/>
    </vehicle>
    <vehicle id="route114" depart="114.00">
        <route edges="-142497502#1 142497502#1 142497502#2 396555616#1"/>
    </vehicle>
    <vehicle id="route115" depart="115.00">
        <route edges="-34894793#0"/>
    </vehicle>
    <vehicle id="route116" depart="116.00">
        <route edges="396555616#0 -396555616#0 34894793#0 -34894793#0"/>
    </vehicle>
    <vehicle id="route117" depart="117.00">
        <route edges="-34894793#1 -34894793#0 396555616#0 -142497502#2 -142497502#1 142497502#1"/>
    </vehicle>
    <vehicle id="route118" depart="118.00">
        <route edges="-396555616#1 142497502#3"/>
    </vehicle>
    <vehicle id="route119" depart="119.00">
        <route edges="-396555616#0 396555616#0 -142497502#2 142497502#2"/>
    </vehicle>
    <vehicle id="route120" depart="120.00">
        <route edges="-142497502#2 -142497502#1 142497502#1"/>
    </vehicle>
    <vehicle id="route121" depart="121.00">
        <route edges="142497502#2 142497502#3"/>
    </vehicle>
    <vehicle id="route122" depart="122.00">
        <route edges="-142497502#3 -396555616#0 34894793#0 -34894793#0"/>
    </vehicle>
    <vehicle id="route123" depart="123.00">
        <route edges="-396555616#1 -396555616#0"/>
    </vehicle>
    <vehicle id="route124" depart="124.00">
        <route edges="34894793#0 -34894793#0 396555616#0 -142497502#2 -142497502#1"/>
    </vehicle>
    <vehicle id="route125" depart="125.00">
        <route edges="-142497502#2 -142497502#1"/>
    </vehicle>
    <vehicle id="route126" depart="126.00">
        <route edges="-34894793#1 -34894793#0 396555616#0 -142497502#2 -142497502#1 142497502#1"/>
    </vehicle>
    <vehicle id="route127" depart="127.00">
        <route edges="396555616#0 -142497502#2 142497502#2"/>
    </vehicle>
    <vehicle id="route128" depart="128.00">
        <route edges="-142497502#3 396555616#1"/>
    </vehicle>
    <vehicle id="route129" depart="129.00">
        <route edges="34894793#0 -34894793#0 396555616#0 -142497502#2"/>
    </vehicle>
    <vehicle id="route130" depart="130.00">
        <route edges="-142497502#3 -142497502#2 -142497502#1 142497502#1"/>
    </vehicle>
    <vehicle id="route131" depart="131.00">
        <route edges="396555616#0 -396555616#0"/>
    </vehicle>
    <vehicle id="route132" depart="132.00">
        <route edges="-142497502#3 -396555616#0 34894793#0 -34894793#0"/>
    </vehicle>
    <vehicle id="route133" depart="133.00">
        <route edges="34894793#0 -34894793#0 396555616#0 -142497502#2 -142497502#1 142497502#1"/>
    </vehicle>
    <vehicle id="route134" depart="134.00">
        <route edges="142497502#2 -396555616#0 34894793#0"/>
    </vehicle>
    <vehicle id="route135" depart="135.00">
        <route edges="-142497502#1 -142497502#0"/>
    </vehicle>
    <vehicle id="route136" depart="136.00">
        <route edges="-396555616#0 396555616#0 142497502#3"/>
    </vehicle>
    <vehicle id="route137" depart="137.00">
        <route edges="-34894793#0"/>
    </vehicle>
    <vehicle id="route138" depart="138.00">
        <route edges="-396555616#0 34894793#0 34894793#1"/>
    </vehicle>
    <vehicle id="route139" depart="139.00">
        <route edges="-142497502#3 -396555616#0 396555616#0"/>
    </vehicle>
    <vehicle id="route140" depart="140.00">
        <route edges="-396555616#1 -142497502#2 -142497502#1 142497502#1"/>
    </vehicle>
    <vehicle id="route141" depart="141.00">
        <route edges="-34894793#1 -34894793#0 396555616#0 396555616#1"/>
    </vehicle>
    <vehicle id="route142" depart="142.00">
        <route edges="-396555616#0 396555616#0"/>
    </vehicle>
    <vehicle id="route143" depart="143.00">
        <route edges="142497502#1 142497502#2 142497502#3"/>
    </vehicle>
    <vehicle id="route144" depart="144.00">
        <route edges="-142497502#1 142497502#1 142497502#2 142497502#3"/>
    </vehicle>
    <vehicle id="route145" depart="145.00">
        <route edges="34894793#0 -34894793#0 396555616#0 -396555616#0"/>
    </vehicle>
    <vehicle id="route146" depart="146.00">
        <route edges="-396555616#0 396555616#0 -142497502#2"/>
    </vehicle>
    <vehicle id="route147" depart="147.00">
        <route edges="-396555616#0 396555616#0 -142497502#2 -142497502#1 -142497502#0"/>
    </vehicle>
    <vehicle id="route148" depart="148.00">
        <route edges="-396555616#0 396555616#0"/>
    </vehicle>
    <vehicle id="route149" depart="149.00">
        <route edges="-34894793#1 -34894793#0 396555616#0 396555616#1"/>
    </vehicle>
    <vehicle id="route150" depart="150.00">
        <route edges="34894793#0 34894793#1"/>
    </vehicle>
    <vehicle id="route151" depart="151.00">
        <route edges="396555616#0 396555616#1"/>
    </vehicle>
    <vehicle id="route152" depart="152.00">
        <route edges="-142497502#1 142497502#1 142497502#2 396555616#1"/>
    </vehicle>
    <vehicle id="route153" depart="153.00">
        <route edges="142497502#1 -142497502#1"/>
    </vehicle>
    <vehicle id="route154" depart="154.00">
        <route edges="-142497502#3 396555616#1"/>
    </vehicle>
    <vehicle id="route155" depart="155.00">
        <route edges="-142497502#3 -142497502#2 -142497502#1"/>
    </vehicle>
    <vehicle id="route156" depart="156.00">
        <route edges="-34894793#0 396555616#0 -142497502#2 142497502#2"/>
    </vehicle>
    <vehicle id="route157" depart="157.00">
        <route edges="-34894793#0 396555616#0 -142497502#2 -142497502#1 142497502#1"/>
    </vehicle>
    <vehicle id="route158" depart="158.00">
        <route edges="-142497502#3 142497502#3"/>
    </vehicle>
    <vehicle id="route159" depart="159.00">
        <route edges="-142497502#2 142497502#2 142497502#3"/>
    </vehicle>
    <vehicle id="route160" depart="160.00">
        <route edges="-142497502#2 -142497502#1"/>
    </vehicle>
    <vehicle id="route161" depart="161.00">
        <route edges="-396555616#1 -396555616#0 396555616#0"/>
    </vehicle>
    <vehicle id="route162" depart="162.00">
        <route edges="-142497502#3 -142497502#2 142497502#2"/>
    </vehicle>
    <vehicle id="route163" depart="163.00">
        <route edges="-396555616#1 142497502#3"/>
    </vehicle>
    <vehicle id="route164" depart="164.00">
        <route edges="-396555616#1 -396555616#0"/>
    </vehicle>
    <vehicle id="route165" depart="165.00">
        <route edges="142497502#1 142497502#2 -396555616#0"/>
    </vehicle>
    <vehicle id="route166" depart="166.00">
        <route edges="396555616#0 -142497502#2 -142497502#1 -142497502#0"/>
    </vehicle>
    <vehicle id="route167" depart="167.00">
        <route edges="396555616#0 -142497502#2"/>
    </vehicle>
    <vehicle id="route168" depart="168.00">
        <route edges="142497502#1 142497502#2 -396555616#0 34894793#0 34894793#1"/>
    </vehicle>
    <vehicle id="route169" depart="169.00">
        <route edges="142497502#0 142497502#1"/>
    </vehicle>
    <vehicle id="route170" depart="170.00">
        <route edges="142497502#0 142497502#1 -142497502#1"/>
    </vehicle>
    <vehicle id="route171" depart="171.00">
        <route edges="-396555616#1 -142497502#2 -142497502#1 142497502#1"/>
    </vehicle>
    <vehicle id="route172" depart="172.00">
        <route edges="142497502#1 142497502#2 -142497502#2"/>
    </vehicle>
    <vehicle id="route173" depart="173.00">
        <route edges="142497502#0 142497502#1 142497502#2 396555616#1"/>
    </vehicle>
    <vehicle id="route174" depart="174.00">
        <route edges="-142497502#2 142497502#2 -396555616#0 34894793#0"/>
    </vehicle>
    <vehicle id="route175" depart="175.00">
        <route edges="-142497502#2 142497502#2 -396555616#0"/>
    </vehicle>
    <vehicle id="route176" depart="176.00">
        <route edges="142497502#2 -396555616#0 34894793#0 -34894793#0"/>
    </vehicle>
    <vehicle id="route177" depart="177.00">
        <route edges="-142497502#2 -142497502#1 142497502#1"/>
    </vehicle>
    <vehicle id="route178" depart="178.00">
        <route edges="-142497502#3 142497502#3"/>
    </vehicle>
    <vehicle id="route179" depart="179.00">
        <route edges="396555616#0 -142497502#2 142497502#2"/>
    </vehicle>
    <vehicle id="route180" depart="180.00">
        <route edges="-142497502#1 142497502#1 142497502#2 -396555616#0 34894793#0 -34894793#0"/>
    </vehicle>
    <vehicle id="route181" depart="181.00">
        <route edges="-396555616#1 396555616#1"/>
    </vehicle>
    <vehicle id="route182" depart="182.00">
        <route edges="142497502#2 142497502#3"/>
    </vehicle>
    <vehicle id="route183" depart="183.00">
        <route edges="142497502#1 142497502#2 -396555616#0"/>
    </vehicle>
    <vehicle id="route184" depart="184.00">
        <route edges="142497502#0 142497502#1 142497502#2 142497502#3"/>
    </vehicle>
    <vehicle id="route185" depart="185.00">
        <route edges="34894793#0 -34894793#0 396555616#0 -142497502#2 -142497502#1"/>
    </vehicle>
    <vehicle id="route186" depart="186.00">
        <route edges="-396555616#1 396555616#1"/>
    </vehicle>
    <vehicle id="route187" depart="187.00">
        <route edges="-142497502#2 -142497502#1 -142497502#0"/>
    </vehicle>
    <vehicle id="route188" depart="188.00">
        <route edges="-34894793#1 -34894793#0 34894793#0"/>
    </vehicle>
    <vehicle id="route189" depart="189.00">
        <route edges="396555616#0 -142497502#2 142497502#2"/>
    </vehicle>
    <vehicle id="route190" depart="190.00">
        <route edges="396555616#0 142497502#3"/>
    </vehicle>
    <vehicle id="route191" depart="191.00">
        <route edges="-142497502#1 142497502#1 142497502#2 142497502#3"/>
    </vehicle>
    <vehicle id="route192" depart="192.00">
        <route edges="396555616#0"/>
    </vehicle>
    <vehicle id="route193" depart="193.00">
        <route edges="142497502#2 396555616#1"/>
    </vehicle>
    <vehicle id="route194" depart="194.00">
        <route edges="-34894793#0 396555616#0 -142497502#2 142497502#2"/>
    </vehicle>
    <vehicle id="route195" depart="195.00">
        <route edges="-142497502#2 142497502#2 -396555616#0 34894793#0 -34894793#0"/>
    </vehicle>
    <vehicle id="route196" depart="196.00">
        <route edges="-34894793#1 -34894793#0 396555616#0 -142497502#2 -142497502#1 142497502#1"/>
    </vehicle>
    <vehicle id="route197" depart="197.00">
        <route edges="-396555616#0 396555616#0 396555616#1"/>
    </vehicle>
    <vehicle id="route198" depart="198.00">
        <route edges="142497502#1 142497502#2 -396555616#0 396555616#0"/>
    </vehicle>
    <vehicle id="route199" depart="199.00">
        <route edges="-142497502#1 142497502#1 142497502#2 396555616#1"/>
    </vehicle>
    <vehicle id="route200" depart="200.00">
        <route edges="142497502#0 142497502#1 -142497502#1"/>
    </vehicle>
    <vehicle id="route201" depart="201.00">
        <route edges="-34894793#0 396555616#0"/>
    </vehicle>
    <vehicle id="route202" depart="202.00">
        <route edges="-34894793#1 -34894793#0"/>
    </vehicle>
    <vehicle id="route203" depart="203.00">
        <route edges="-396555616#0 34894793#0 -34894793#0"/>
    </vehicle>
    <vehicle id="route204" depart="204.00">
        <route edges="-142497502#1 -142497502#0"/>
    </vehicle>
    <vehicle id="route205" depart="205.00">
        <route edges="396555616#0 -142497502#2"/>
    </vehicle>
    <vehicle id="route206" depart="206.00">
        <route edges="396555616#0 -396555616#0"/>
    </vehicle>
    <vehicle id="route207" depart="207.00">
        <route edges="-34894793#0 396555616#0 -142497502#2"/>
    </vehicle>
    <vehicle id="route208" depart="208.00">
        <route edges="-142497502#2 142497502#2 142497502#3"/>
    </vehicle>
    <vehicle id="route209" depart="209.00">
        <route edges="396555616#0 142497502#3"/>
    </vehicle>
    <vehicle id="route210" depart="210.00">
        <route edges="-396555616#1 142497502#3"/>
    </vehicle>
    <vehicle id="route211" depart="211.00">
        <route edges="34894793#0 -34894793#0 396555616#0"/>
    </vehicle>
    <vehicle id="route212" depart="212.00">
        <route edges="-396555616#0 396555616#0 -142497502#2 -142497502#1"/>
    </vehicle>
    <vehicle id="route213" depart="213.00">
        <route edges="-34894793#0 396555616#0 -142497502#2 -142497502#1"/>
    </vehicle>
    <vehicle id="route214" depart="214.00">
        <route edges="-142497502#3 -396555616#0"/>
    </vehicle>
    <vehicle id="route215" depart="215.00">
        <route edges="142497502#0 142497502#1 142497502#2"/>
    </vehicle>
    <vehicle id="route216" depart="216.00">
        <route edges="-34894793#1 34894793#1"/>
    </vehicle>
    <vehicle id="route217" depart="217.00">
        <route edges="-34894793#0 396555616#0 -142497502#2 -142497502#1 -142497502#0"/>
    </vehicle>
    <vehicle id="route218" depart="218.00">
        <route edges="142497502#1"/>
    </vehicle>
    <vehicle id="route219" depart="219.00">
        <route edges="-142497502#2 142497502#2 142497502#3"/>
    </vehicle>
    <vehicle id="route220" depart="220.00">
        <route edges="-34894793#1 -34894793#0 396555616#0 -142497502#2 -142497502#1 -142497502#0"/>
    </vehicle>
    <vehicle id="route221" depart="221.00">
        <route edges="-142497502#3 -396555616#0 34894793#0 34894793#1"/>
    </vehicle>
    <vehicle id="route222" depart="222.00">
        <route edges="142497502#1 142497502#2 -142497502#2"/>
    </vehicle>
    <vehicle id="route223" depart="223.00">
        <route edges="-142497502#3 -142497502#2 142497502#2"/>
    </vehicle>
    <vehicle id="route224" depart="224.00">
        <route edges="-142497502#2"/>
    </vehicle>
    <vehicle id="route225" depart="225.00">
        <route edges="-34894793#1 -34894793#0 396555616#0 142497502#3"/>
    </vehicle>
    <vehicle id="route226" depart="226.00">
        <route edges="-396555616#0 34894793#0"/>
    </vehicle>
    <vehicle id="route227" depart="227.00">
        <route edges="-142497502#2 142497502#2 -396555616#0 396555616#0"/>
    </vehicle>
    <vehicle id="route228" depart="228.00">
        <route edges="-142497502#2 -142497502#1 -142497502#0"/>
    </vehicle>
    <vehicle id="route229" depart="229.00">
        <route edges="-396555616#1 -142497502#2 -142497502#1"/>
    </vehicle>
    <vehicle id="route230" depart="230.00">
        <route edges="396555616#0 -142497502#2 -142497502#1"/>
    </vehicle>
    <vehicle id="route231" depart="231.00">
        <route edges="-142497502#1 -142497502#0"/>
    </vehicle>
    <vehicle id="route232" depart="232.00">
        <route edges="-142497502#1 142497502#1 142497502#2 -396555616#0 34894793#0 -34894793#0"/>
    </vehicle>
    <vehicle id="route233" depart="233.00">
        <route edges="142497502#2 -396555616#0 34894793#0 -34894793#0"/>
    </vehicle>
    <vehicle id="route234" depart="234.00">
        <route edges="396555616#0 -396555616#0 34894793#0 -34894793#0"/>
    </vehicle>
    <vehicle id="route235" depart="235.00">
        <route edges="-396555616#0"/>
    </vehicle>
    <vehicle id="route236" depart="236.00">