<routes xmlns:xsi="http://www.w3.org/2001/XMLSchema-instance" xsi:noNamespaceSchemaLocation="http://sumo.dlr.de/xsd/routes_file.xsd">
    <vehicle depart="7.00" id="route7">
        <route edges="-396555616#1 -396555616#0" />
    </vehicle>
    <vehicle depart="10.00" id="route10">
        <route edges="-142497502#3 -396555616#0 34894793#0" />
    </vehicle>
    <vehicle depart="21.00" id="route21">
        <route edges="142497502#0 142497502#1 142497502#2 -396555616#0 34894793#0" />
    </vehicle>
    <vehicle depart="24.00" id="route24">
        <route edges="-142497502#3 -142497502#2 142497502#2" />
    </vehicle>
    <vehicle depart="26.00" id="route26">
        <route edges="-396555616#1 -142497502#2" />
    </vehicle>
    <vehicle depart="31.00" id="route31">
        <route edges="-396555616#1 -396555616#0 34894793#0" />
    </vehicle>
    <vehicle depart="34.00" id="route34">
        <route edges="-396555616#1 -396555616#0 34894793#0 34894793#1" />
    </vehicle>
    <vehicle depart="48.00" id="route48">
        <route edges="142497502#0 142497502#1 142497502#2 -142497502#2" />
    </vehicle>
    <vehicle depart="54.00" id="route54">
        <route edges="-142497502#3 -142497502#2 -142497502#1" />
    </vehicle>
    <vehicle depart="58.00" id="route58">
        <route edges="-34894793#1 -34894793#0 396555616#0 142497502#3" />
    </vehicle>
    <vehicle depart="60.00" id="route60">
        <route edges="-142497502#3 -142497502#2" />
    </vehicle>
    <vehicle depart="62.00" id="route62">
        <route edges="-396555616#1 -396555616#0 34894793#0" />
    </vehicle>
    <vehicle depart="65.00" id="route65">
        <route edges="-396555616#1 142497502#3" />
    </vehicle>
    <vehicle depart="67.00" id="route67">
        <route edges="-142497502#3 396555616#1" />
    </vehicle>
    <vehicle depart="73.00" id="route73">
        <route edges="-142497502#3 396555616#1" />
    </vehicle>
    <vehicle depart="74.00" id="route74">
        <route edges="-396555616#1 -396555616#0 396555616#0" />
    </vehicle>
    <vehicle depart="76.00" id="route76">
        <route edges="-34894793#1 -34894793#0 396555616#0 142497502#3" />
    </vehicle>
    <vehicle depart="78.00" id="route78">
        <route edges="-34894793#1 -34894793#0 34894793#0" />
    </vehicle>
    <vehicle depart="80.00" id="route80">
        <route edges="-142497502#3 -142497502#2 -142497502#1 -142497502#0" />
    </vehicle>
    <vehicle depart="81.00" id="route81">
        <route edges="-396555616#1 -396555616#0 34894793#0 -34894793#0" />
    </vehicle>
    <vehicle depart="84.00" id="route84">
        <route edges="-34894793#1 -34894793#0 396555616#0 -396555616#0" />
    </vehicle>
    <vehicle depart="87.00" id="route87">
        <route edges="-142497502#3 -142497502#2" />
    </vehicle>
    <vehicle depart="88.00" id="route88">
        <route edges="142497502#0 142497502#1 142497502#2 -396555616#0 34894793#0" />
    </vehicle>
    <vehicle depart="90.00" id="route90">
        <route edges="-34894793#1 -34894793#0 396555616#0 -142497502#2 -142497502#1 -142497502#0" />
    </vehicle>
    <vehicle depart="91.00" id="route91">
        <route edges="-142497502#3 -142497502#2" />
    </vehicle>
    <vehicle depart="95.00" id="route95">
        <route edges="-34894793#1 -34894793#0" />
    </vehicle>
    <vehicle depart="97.00" id="route97">
        <route edges="-142497502#3 -396555616#0" />
    </vehicle>
    <vehicle depart="98.00" id="route98">
        <route edges="142497502#0 142497502#1 142497502#2 -396555616#0 34894793#0" />
    </vehicle>
    <vehicle depart="99.00" id="route99">
        <route edges="-396555616#1 -142497502#2 -142497502#1 142497502#1" />
    </vehicle>
    <vehicle depart="101.00" id="route101">
        <route edges="-142497502#3 -142497502#2 -142497502#1 142497502#1" />
    </vehicle>
    <vehicle depart="103.00" id="route103">
        <route edges="-142497502#3 -396555616#0" />
    </vehicle>
    <vehicle depart="107.00" id="route107">
        <route edges="-34894793#1 -34894793#0" />
    </vehicle>
    <vehicle depart="111.00" id="route111">
        <route edges="142497502#0 -142497502#0" />
    </vehicle>
    <vehicle depart="117.00" id="route117">
        <route edges="-34894793#1 -34894793#0 396555616#0 -142497502#2 -142497502#1 142497502#1" />
    </vehicle>
    <vehicle depart="118.00" id="route118">
        <route edges="-396555616#1 142497502#3" />
    </vehicle>
    <vehicle depart="122.00" id="route122">
        <route edges="-142497502#3 -396555616#0 34894793#0 -34894793#0" />
    </vehicle>
    <vehicle depart="123.00" id="route123">
        <route edges="-396555616#1 -396555616#0" />
    </vehicle>
    <vehicle depart="126.00" id="route126">
        <route edges="-34894793#1 -34894793#0 396555616#0 -142497502#2 -142497502#1 142497502#1" />
    </vehicle>
    <vehicle depart="128.00" id="route128">
        <route edges="-142497502#3 396555616#1" />
    </vehicle>
    <vehicle depart="130.00" id="route130">
        <route edges="-142497502#3 -142497502#2 -142497502#1 142497502#1" />
    </vehicle>
    <vehicle depart="132.00" id="route132">
        <route edges="-142497502#3 -396555616#0 34894793#0 -34894793#0" />
    </vehicle>
    <vehicle depart="139.00" id="route139">
        <route edges="-142497502#3 -396555616#0 396555616#0" />
    </vehicle>
    <vehicle depart="140.00" id="route140">
        <route edges="-396555616#1 -142497502#2 -142497502#1 142497502#1" />
    </vehicle>
    <vehicle depart="141.00" id="route141">
        <route edges="-34894793#1 -34894793#0 396555616#0 396555616#1" />
    </vehicle>
    <vehicle depart="149.00" id="route149">
        <route edges="-34894793#1 -34894793#0 396555616#0 396555616#1" />
    </vehicle>
    <vehicle depart="154.00" id="route154">
        <route edges="-142497502#3 396555616#1" />
    </vehicle>
    <vehicle depart="155.00" id="route155">
        <route edges="-142497502#3 -142497502#2 -142497502#1" />
    </vehicle>
    <vehicle depart="158.00" id="route158">
        <route edges="-142497502#3 142497502#3" />
    </vehicle>
    <vehicle depart="161.00" id="route161">
        <route edges="-396555616#1 -396555616#0 396555616#0" />
    </vehicle>
    <vehicle depart="162.00" id="route162">
        <route edges="-142497502#3 -142497502#2 142497502#2" />
    </vehicle>
    <vehicle depart="163.00" id="route163">
        <route edges="-396555616#1 142497502#3" />
    </vehicle>
    <vehicle depart="164.00" id="route164">
        <route edges="-396555616#1 -396555616#0" />
    </vehicle>
    <vehicle depart="169.00" id="route169">
        <route edges="142497502#0 142497502#1" />
    </vehicle>
    <vehicle depart="170.00" id="route170">
        <route edges="142497502#0 142497502#1 -142497502#1" />
    </vehicle>
    <vehicle depart="171.00" id="route171">
        <route edges="-396555616#1 -142497502#2 -142497502#1 142497502#1" />
    </vehicle>
    <vehicle depart="173.00" id="route173">
        <route edges="142497502#0 142497502#1 142497502#2 396555616#1" />
    </vehicle>
    <vehicle depart="178.00" id="route178">
        <route edges="-142497502#3 142497502#3" />
    </vehicle>
    <vehicle depart="181.00" id="route181">
        <route edges="-396555616#1 396555616#1" />
    </vehicle>
    <vehicle depart="184.00" id="route184">
        <route edges="142497502#0 142497502#1 142497502#2 142497502#3" />
    </vehicle>
    <vehicle depart="186.00" id="route186">
        <route edges="-396555616#1 396555616#1" />
    </vehicle>
    <vehicle depart="188.00" id="route188">
        <route edges="-34894793#1 -34894793#0 34894793#0" />
    </vehicle>
    <vehicle depart="196.00" id="route196">
        <route edges="-34894793#1 -34894793#0 396555616#0 -142497502#2 -142497502#1 142497502#1" />
    </vehicle>
    <vehicle depart="200.00" id="route200">
        <route edges="142497502#0 142497502#1 -142497502#1" />
    </vehicle>
    <vehicle depart="202.00" id="route202">
        <route edges="-34894793#1 -34894793#0" />
    </vehicle>
    <vehicle depart="210.00" id="route210">
        <route edges="-396555616#1 142497502#3" />
    </vehicle>
    <vehicle depart="214.00" id="route214">
        <route edges="-142497502#3 -396555616#0" />
    </vehicle>
    <vehicle depart="215.00" id="route215">
        <route edges="142497502#0 142497502#1 142497502#2" />
    </vehicle>
    <vehicle depart="216.00" id="route216">
        <route edges="-34894793#1 34894793#1" />
    </vehicle>
    <vehicle depart="220.00" id="route220">
        <route edges="-34894793#1 -34894793#0 396555616#0 -142497502#2 -142497502#1 -142497502#0" />
    </vehicle>
    <vehicle depart="221.00" id="route221">
        <route edges="-142497502#3 -396555616#0 34894793#0 34894793#1" />
    </vehicle>
    <vehicle depart="223.00" id="route223">
        <route edges="-142497502#3 -142497502#2 142497502#2" />
    </vehicle>
    <vehicle depart="225.00" id="route225">
        <route edges="-34894793#1 -34894793#0 396555616#0 142497502#3" />
    </vehicle>
    <vehicle depart="229.00" id="route229">
        <route edges="-396555616#1 -142497502#2 -142497502#1" />
    </vehicle>
    <vehicle depart="238.00" id="route238">
        <route edges="-34894793#1 -34894793#0 396555616#0 -142497502#2 142497502#2" />
    </vehicle>
    <vehicle depart="244.00" id="route244">
        <route edges="-142497502#3 -142497502#2" />
    </vehicle>
    <vehicle depart="245.00" id="route245">
        <route edges="142497502#0 142497502#1" />
    </vehicle>
    <vehicle depart="247.00" id="route247">
        <route edges="142497502#0 142497502#1 -142497502#1" />
    </vehicle>
    <vehicle depart="250.00" id="route250">
        <route edges="-396555616#1 -142497502#2" />
    </vehicle>
    <vehicle depart="252.00" id="route252">
        <route edges="-142497502#3 -142497502#2 -142497502#1" />
    </vehicle>
    <vehicle depart="253.00" id="route253">
        <route edges="-142497502#3 -396555616#0 34894793#0 34894793#1" />
    </vehicle>
    <vehicle depart="254.00" id="route254">
        <route edges="-34894793#1 -34894793#0 396555616#0 -142497502#2 142497502#2" />
    </vehicle>
    <vehicle depart="258.00" id="route258">
        <route edges="-142497502#3 -142497502#2 -142497502#1 142497502#1" />
    </vehicle>
    <vehicle depart="259.00" id="route259">
        <route edges="142497502#0 142497502#1 142497502#2 396555616#1" />
    </vehicle>
    <vehicle depart="260.00" id="route260">
        <route edges="-396555616#1 -396555616#0 34894793#0" />
    </vehicle>
    <vehicle depart="262.00" id="route262">
        <route edges="-34894793#1 -34894793#0 396555616#0" />
    </vehicle>
    <vehicle depart="263.00" id="route263">
        <route edges="-396555616#1 396555616#1" />
    </vehicle>
    <vehicle depart="269.00" id="route269">
        <route edges="-142497502#3 -142497502#2 -142497502#1 142497502#1" />
    </vehicle>
    <vehicle depart="270.00" id="route270">
        <route edges="-396555616#1 -396555616#0 34894793#0 34894793#1" />
    </vehicle>
    <vehicle depart="289.00" id="route289">
        <route edges="-142497502#3 -142497502#2 -142497502#1" />
    </vehicle>
    <vehicle depart="290.00" id="route290">
        <route edges="142497502#0 142497502#1" />
    </vehicle>
    <vehicle depart="292.00" id="route292">
        <route edges="142497502#0 142497502#1 142497502#2 -396555616#0 396555616#0" />
    </vehicle>
    <vehicle depart="293.00" id="route293">
        <route edges="-396555616#1 -142497502#2" />
    </vehicle>
    <vehicle depart="295.00" id="route295">
        <route edges="-396555616#1 -396555616#0 34894793#0" />
    </vehicle>
    <vehicle depart="299.00" id="route299">
        <route edges="-396555616#1 -142497502#2 -142497502#1" />
    </vehicle>
    <vehicle depart="302.00" id="route302">
        <route edges="-34894793#1 -34894793#0 396555616#0 -396555616#0" />
    </vehicle>
    <vehicle depart="307.00" id="route307">
        <route edges="-34894793#1 34894793#1" />
    </vehicle>
    <vehicle depart="309.00" id="route309">
        <route edges="-142497502#3 -142497502#2 -142497502#1 -142497502#0" />
    </vehicle>
    <vehicle depart="310.00" id="route310">
        <route edges="142497502#0 142497502#1 142497502#2 -396555616#0 34894793#0 34894793#1" />
    </vehicle>
    <vehicle depart="311.00" id="route311">
        <route edges="-142497502#3 -396555616#0" />
    </vehicle>
    <vehicle depart="314.00" id="route314">
        <route edges="-34894793#1 -34894793#0 396555616#0 -142497502#2 -142497502#1 -142497502#0" />
    </vehicle>
    <vehicle depart="323.00" id="route323">
        <route edges="-396555616#1 -396555616#0" />
    </vehicle>
    <vehicle depart="325.00" id="route325">
        <route edges="-34894793#1 -34894793#0 396555616#0 396555616#1" />
    </vehicle>
    <vehicle depart="327.00" id="route327">
        <route edges="-142497502#3 -142497502#2 -142497502#1" />
    </vehicle>
    <vehicle depart="328.00" id="route328">
        <route edges="-142497502#3 -396555616#0 34894793#0" />
    </vehicle>
    <vehicle depart="329.00" id="route329">
        <route edges="-396555616#1 -396555616#0 396555616#0" />
    </vehicle>
    <vehicle depart="330.00" id="route330">
        <route edges="-34894793#1 -34894793#0 34894793#0" />
    </vehicle>
    <vehicle depart="336.00" id="route336">
        <route edges="142497502#0 142497502#1 -142497502#1" />
    </vehicle>
    <vehicle depart="339.00" id="route339">
        <route edges="-142497502#3 -142497502#2" />
    </vehicle>
    <vehicle depart="340.00" id="route340">
        <route edges="142497502#0 142497502#1 142497502#2 -396555616#0 396555616#0" />
    </vehicle>
    <vehicle depart="341.00" id="route341">
        <route edges="142497502#0 142497502#1 142497502#2 -396555616#0 396555616#0" />
    </vehicle>
    <vehicle depart="343.00" id="route343">
        <route edges="142497502#0 142497502#1 142497502#2 -396555616#0" />
    </vehicle>
    <vehicle depart="347.00" id="route347">
        <route edges="-34894793#1 -34894793#0 396555616#0 142497502#3" />
    </vehicle>
    <vehicle depart="348.00" id="route348">
        <route edges="-34894793#1 -34894793#0 396555616#0 -142497502#2 -142497502#1 142497502#1" />
    </vehicle>
    <vehicle depart="349.00" id="route349">
        <route edges="-34894793#1 -34894793#0 396555616#0 -396555616#0" />
    </vehicle>
    <vehicle depart="351.00" id="route351">
        <route edges="-34894793#1 34894793#1" />
    </vehicle>
    <vehicle depart="353.00" id="route353">
        <route edges="142497502#0 142497502#1 142497502#2 -396555616#0 396555616#0" />
    </vehicle>
    <vehicle depart="356.00" id="route356">
        <route edges="-142497502#3 -396555616#0 34894793#0 -34894793#0" />
    </vehicle>
    <vehicle depart="357.00" id="route357">
        <route edges="-396555616#1 -396555616#0 34894793#0" />
    </vehicle>
    <vehicle depart="360.00" id="route360">
        <route edges="-34894793#1 -34894793#0 396555616#0 -396555616#0" />
    </vehicle>
    <vehicle depart="374.00" id="route374">
        <route edges="-34894793#1 -34894793#0 396555616#0 -142497502#2 -142497502#1 142497502#1" />
    </vehicle>
    <vehicle depart="377.00" id="route377">
        <route edges="142497502#0 142497502#1 142497502#2 -142497502#2" />
    </vehicle>
    <vehicle depart="378.00" id="route378">
        <route edges="-34894793#1 -34894793#0 396555616#0 -142497502#2 -142497502#1 142497502#1" />
    </vehicle>
    <vehicle depart="379.00" id="route379">
        <route edges="-142497502#3 -142497502#2 -142497502#1" />
    </vehicle>
    <vehicle depart="381.00" id="route381">
        <route edges="-34894793#1 -34894793#0" />
    </vehicle>
    <vehicle depart="383.00" id="route383">
        <route edges="142497502#0 -142497502#0" />
    </vehicle>
    <vehicle depart="384.00" id="route384">
        <route edges="-396555616#1 -396555616#0" />
    </vehicle>
    <vehicle depart="385.00" id="route385">
        <route edges="142497502#0 142497502#1 142497502#2 -396555616#0" />
    </vehicle>
    <vehicle depart="387.00" id="route387">
        <route edges="-396555616#1 -396555616#0 34894793#0 -34894793#0" />
    </vehicle>
    <vehicle depart="389.00" id="route389">
        <route edges="-34894793#1 -34894793#0 396555616#0 -142497502#2" />
    </vehicle>
    <vehicle depart="391.00" id="route391">
        <route edges="-34894793#1 -34894793#0 396555616#0 -142497502#2 -142497502#1 -142497502#0" />
    </vehicle>
    <vehicle depart="392.00" id="route392">
        <route edges="142497502#0 142497502#1 142497502#2 -396555616#0 396555616#0" />
    </vehicle>
    <vehicle depart="397.00" id="route397">
        <route edges="-142497502#3 142497502#3" />
    </vehicle>
    <vehicle depart="398.00" id="route398">
        <route edges="-142497502#3 -396555616#0 396555616#0" />
    </vehicle>
    <vehicle depart="401.00" id="route401">
        <route edges="142497502#0 142497502#1 142497502#2 -396555616#0" />
    </vehicle>
    <vehicle depart="403.00" id="route403">
        <route edges="-34894793#1 -34894793#0 396555616#0 -396555616#0" />
    </vehicle>
    <vehicle depart="404.00" id="route404">
        <route edges="-34894793#1 -34894793#0 396555616#0 -142497502#2 -142497502#1 142497502#1" />
    </vehicle>
    <vehicle depart="406.00" id="route406">
        <route edges="142497502#0 142497502#1 142497502#2 142497502#3" />
    </vehicle>
    <vehicle depart="409.00" id="route409">
        <route edges="-142497502#3 -396555616#0 396555616#0" />
    </vehicle>
    <vehicle depart="410.00" id="route410">
        <route edges="-396555616#1 142497502#3" />
    </vehicle>
    <vehicle depart="411.00" id="route411">
        <route edges="-34894793#1 -34894793#0 34894793#0" />
    </vehicle>
    <vehicle depart="415.00" id="route415">
        <route edges="-142497502#3 -396555616#0" />
    </vehicle>
    <vehicle depart="416.00" id="route416">
        <route edges="142497502#0 142497502#1 142497502#2 142497502#3" />
    </vehicle>
    <vehicle depart="420.00" id="route420">
        <route edges="142497502#0 142497502#1 142497502#2 -396555616#0 34894793#0 34894793#1" />
    </vehicle>
    <vehicle depart="421.00" id="route421">
        <route edges="142497502#0 142497502#1 142497502#2 396555616#1" />
    </vehicle>
    <vehicle depart="427.00" id="route427">
        <route edges="-34894793#1 -34894793#0 396555616#0 -142497502#2 -142497502#1" />
    </vehicle>
    <vehicle depart="431.00" id="route431">
        <route edges="142497502#0 142497502#1 142497502#2 -142497502#2" />
    </vehicle>
    <vehicle depart="433.00" id="route433">
        <route edges="-142497502#3 -142497502#2 -142497502#1 -142497502#0" />
    </vehicle>
    <vehicle depart="435.00" id="route435">
        <route edges="-142497502#3 -396555616#0 396555616#0" />
    </vehicle>
    <vehicle depart="436.00" id="route436">
        <route edges="-142497502#3 -142497502#2 -142497502#1 -142497502#0" />
    </vehicle>
    <vehicle depart="439.00" id="route439">
        <route edges="-142497502#3 -396555616#0 34894793#0 -34894793#0" />
    </vehicle>
    <vehicle depart="451.00" id="route451">
        <route edges="-34894793#1 -34894793#0 396555616#0 -142497502#2" />
    </vehicle>
    <vehicle depart="456.00" id="route456">
        <route edges="-142497502#3 -142497502#2 -142497502#1 -142497502#0" />
    </vehicle>
    <vehicle depart="457.00" id="route457">
        <route edges="142497502#0 142497502#1 142497502#2 -396555616#0 34894793#0" />
    </vehicle>
    <vehicle depart="463.00" id="route463">
        <route edges="-396555616#1 -142497502#2 -142497502#1 -142497502#0" />
    </vehicle>
    <vehicle depart="465.00" id="route465">
        <route edges="-396555616#1 -142497502#2" />
    </vehicle>
    <vehicle depart="467.00" id="route467">
        <route edges="142497502#0 142497502#1 142497502#2 -396555616#0 34894793#0" />
    </vehicle>
    <vehicle depart="474.00" id="route474">
        <route edges="-396555616#1 -142497502#2 -142497502#1 -142497502#0" />
    </vehicle>
    <vehicle depart="475.00" id="route475">
        <route edges="142497502#0 142497502#1 142497502#2 396555616#1" />
    </vehicle>
    <vehicle depart="478.00" id="route478">
        <route edges="-34894793#1 -34894793#0 34894793#0" />
    </vehicle>
    <vehicle depart="488.00" id="route488">
        <route edges="-142497502#3 -396555616#0" />
    </vehicle>
    <vehicle depart="489.00" id="route489">
        <route edges="-142497502#3 -396555616#0 34894793#0 -34894793#0" />
    </vehicle>
    <vehicle depart="495.00" id="route495">
        <route edges="-396555616#1 -142497502#2" />
    </vehicle>
    <vehicle depart="498.00" id="route498">
        <route edges="142497502#0 142497502#1 142497502#2 -396555616#0 396555616#0" />
    </vehicle>
    <vehicle depart="500.00" id="route500">
        <route edges="-396555616#1 -396555616#0" />
    </vehicle>
    <vehicle depart="508.00" id="route508">
        <route edges="-396555616#1 -396555616#0 396555616#0" />
    </vehicle>
    <vehicle depart="511.00" id="route511">
        <route edges="142497502#0 142497502#1 142497502#2" />
    </vehicle>
    <vehicle depart="515.00" id="route515">
        <route edges="-142497502#3 -396555616#0 34894793#0" />
    </vehicle>
    <vehicle depart="518.00" id="route518">
        <route edges="-34894793#1 -34894793#0 396555616#0 142497502#3" />
    </vehicle>
    <vehicle depart="523.00" id="route523">
        <route edges="-34894793#1 -34894793#0 34894793#0" />
    </vehicle>
    <vehicle depart="524.00" id="route524">
        <route edges="-142497502#3 -396555616#0" />
    </vehicle>
    <vehicle depart="525.00" id="route525">
        <route edges="142497502#0 142497502#1 142497502#2 -142497502#2" />
    </vehicle>
    <vehicle depart="526.00" id="route526">
        <route edges="142497502#0 142497502#1 142497502#2 -396555616#0 34894793#0 -34894793#0" />
    </vehicle>
    <vehicle depart="530.00" id="route530">
        <route edges="142497502#0 -142497502#0" />
    </vehicle>
    <vehicle depart="531.00" id="route531">
        <route edges="142497502#0 142497502#1 142497502#2 142497502#3" />
    </vehicle>
    <vehicle depart="534.00" id="route534">
        <route edges="142497502#0 142497502#1" />
    </vehicle>
    <vehicle depart="537.00" id="route537">
        <route edges="142497502#0 142497502#1 142497502#2 -396555616#0 34894793#0 34894793#1" />
    </vehicle>
    <vehicle depart="541.00" id="route541">
        <route edges="-142497502#3 -142497502#2 -142497502#1 -142497502#0" />
    </vehicle>
    <vehicle depart="544.00" id="route544">
        <route edges="-142497502#3 -142497502#2 142497502#2" />
    </vehicle>
    <vehicle depart="545.00" id="route545">
        <route edges="-34894793#1 -34894793#0 396555616#0 -142497502#2 -142497502#1 -142497502#0" />
    </vehicle>
    <vehicle depart="554.00" id="route554">
        <route edges="-142497502#3 -142497502#2 142497502#2" />
    </vehicle>
    <vehicle depart="560.00" id="route560">
        <route edges="142497502#0 142497502#1" />
    </vehicle>
    <vehicle depart="562.00" id="route562">
        <route edges="-34894793#1 -34894793#0 396555616#0 -142497502#2 -142497502#1 -142497502#0" />
    </vehicle>
    <vehicle depart="568.00" id="route568">
        <route edges="-142497502#3 -396555616#0" />
    </vehicle>
    <vehicle depart="572.00" id="route572">
        <route edges="-34894793#1 -34894793#0 396555616#0 -142497502#2" />
    </vehicle>
    <vehicle depart="574.00" id="route574">
        <route edges="-34894793#1 -34894793#0 396555616#0 -142497502#2 -142497502#1 142497502#1" />
    </vehicle>
    <vehicle depart="576.00" id="route576">
        <route edges="142497502#0 142497502#1 142497502#2 -396555616#0" />
    </vehicle>
    <vehicle depart="578.00" id="route578">
        <route edges="-34894793#1 -34894793#0 396555616#0 -142497502#2 -142497502#1 142497502#1" />
    </vehicle>
    <vehicle depart="580.00" id="route580">
        <route edges="-142497502#3 -396555616#0 34894793#0 -34894793#0" />
    </vehicle>
    <vehicle depart="582.00" id="route582">
        <route edges="142497502#0 142497502#1 142497502#2" />
    </vehicle>
    <vehicle depart="589.00" id="route589">
        <route edges="-396555616#1 142497502#3" />
    </vehicle>
    <vehicle depart="593.00" id="route593">
        <route edges="-142497502#3 -396555616#0 34894793#0 -34894793#0" />
    </vehicle>
    <vehicle depart="597.00" id="route597">
        <route edges="-142497502#3 -142497502#2 -142497502#1 -142497502#0" />
    </vehicle>
    <vehicle depart="600.00" id="route600">
        <route edges="-34894793#1 -34894793#0 396555616#0 -142497502#2 142497502#2" />
    </vehicle>
    <vehicle depart="601.00" id="route601">
        <route edges="-142497502#3 142497502#3" />
    </vehicle>
    <vehicle depart="604.00" id="route604">
        <route edges="-34894793#1 34894793#1" />
    </vehicle>
    <vehicle depart="606.00" id="route606">
        <route edges="-142497502#3 -396555616#0" />
    </vehicle>
    <vehicle depart="608.00" id="route608">
        <route edges="-396555616#1 -142497502#2 -142497502#1" />
    </vehicle>
    <vehicle depart="609.00" id="route609">
        <route edges="-396555616#1 -142497502#2 -142497502#1 142497502#1" />
    </vehicle>
    <vehicle depart="612.00" id="route612">
        <route edges="-396555616#1 -396555616#0 396555616#0" />
    </vehicle>
    <vehicle depart="613.00" id="route613">
        <route edges="142497502#0 142497502#1 142497502#2 142497502#3" />
    </vehicle>
    <vehicle depart="616.00" id="route616">
        <route edges="-34894793#1 -34894793#0 396555616#0 -142497502#2 142497502#2" />
    </vehicle>
    <vehicle depart="620.00" id="route620">
        <route edges="-34894793#1 -34894793#0 396555616#0 -142497502#2 -142497502#1 -142497502#0" />
    </vehicle>
    <vehicle depart="623.00" id="route623">
        <route edges="-396555616#1 -142497502#2 -142497502#1 -142497502#0" />
    </vehicle>
    <vehicle depart="625.00" id="route625">
        <route edges="-142497502#3 -142497502#2 -142497502#1 -142497502#0" />
    </vehicle>
    <vehicle depart="626.00" id="route626">
        <route edges="142497502#0 142497502#1 142497502#2 -396555616#0 396555616#0" />
    </vehicle>
    <vehicle depart="628.00" id="route628">
        <route edges="-34894793#1 -34894793#0 396555616#0 396555616#1" />
    </vehicle>
    <vehicle depart="630.00" id="route630">
        <route edges="142497502#0 142497502#1 142497502#2 -396555616#0 396555616#0" />
    </vehicle>
    <vehicle depart="633.00" id="route633">
        <route edges="-34894793#1 -34894793#0 396555616#0 -142497502#2 142497502#2" />
    </vehicle>
    <vehicle depart="638.00" id="route638">
        <route edges="-396555616#1 396555616#1" />
    </vehicle>
    <vehicle depart="640.00" id="route640">
        <route edges="-396555616#1 -142497502#2" />
    </vehicle>
    <vehicle depart="642.00" id="route642">
        <route edges="-142497502#3 -142497502#2 -142497502#1 -142497502#0" />
    </vehicle>
    <vehicle depart="644.00" id="route644">
        <route edges="-142497502#3 -396555616#0" />
    </vehicle>
    <vehicle depart="646.00" id="route646">
        <route edges="-34894793#1 -34894793#0 396555616#0 142497502#3" />
    </vehicle>
    <vehicle depart="647.00" id="route647">
        <route edges="-396555616#1 -142497502#2 142497502#2" />
    </vehicle>
    <vehicle depart="649.00" id="route649">
        <route edges="-396555616#1 -142497502#2 -142497502#1 142497502#1" />
    </vehicle>
    <vehicle depart="650.00" id="route650">
        <route edges="-142497502#3 -396555616#0 34894793#0" />
    </vehicle>
    <vehicle depart="660.00" id="route660">
        <route edges="-142497502#3 -396555616#0 396555616#0" />
    </vehicle>
    <vehicle depart="661.00" id="route661">
        <route edges="-142497502#3 -142497502#2 -142497502#1" />
    </vehicle>
    <vehicle depart="667.00" id="route667">
        <route edges="-142497502#3 -142497502#2" />
    </vehicle>
    <vehicle depart="668.00" id="route668">
        <route edges="-396555616#1 -396555616#0 396555616#0" />
    </vehicle>
    <vehicle depart="669.00" id="route669">
        <route edges="-142497502#3 396555616#1" />
    </vehicle>
    <vehicle depart="670.00" id="route670">
        <route edges="-396555616#1 -396555616#0 34894793#0" />
    </vehicle>
    <vehicle depart="671.00" id="route671">
        <route edges="-142497502#3 -142497502#2 -142497502#1 142497502#1" />
    </vehicle>
    <vehicle depart="672.00" id="route672">
        <route edges="-34894793#1 -34894793#0 396555616#0 396555616#1" />
    </vehicle>
    <vehicle depart="673.00" id="route673">
        <route edges="-34894793#1 -34894793#0 396555616#0" />
    </vehicle>
    <vehicle depart="675.00" id="route675">
        <route edges="142497502#0 142497502#1 142497502#2 -396555616#0 396555616#0" />
    </vehicle>
    <vehicle depart="676.00" id="route676">
        <route edges="-396555616#1 -142497502#2 -142497502#1 -142497502#0" />
    </vehicle>
    <vehicle depart="678.00" id="route678">
        <route edges="142497502#0 142497502#1 142497502#2 -142497502#2" />
    </vehicle>
    <vehicle depart="679.00" id="route679">
        <route edges="-142497502#3 -396555616#0 34894793#0" />
    </vehicle>
    <vehicle depart="680.00" id="route680">
        <route edges="-396555616#1 -142497502#2" />
    </vehicle>
    <vehicle depart="688.00" id="route688">
        <route edges="-396555616#1 -396555616#0 34894793#0 -34894793#0" />
    </vehicle>
    <vehicle depart="690.00" id="route690">
        <route edges="-34894793#1 -34894793#0" />
    </vehicle>
    <vehicle depart="691.00" id="route691">
        <route edges="-142497502#3 -396555616#0" />
    </vehicle>
    <vehicle depart="697.00" id="route697">
        <route edges="-396555616#1 -396555616#0 34894793#0 34894793#1" />