<?xml version="1.0" encoding="UTF-8"?>

<!-- generated on Mon Oct 29 13:00:17 2018 by Eclipse SUMO netconvert Version 60efd76
<configuration xmlns:xsi="http://www.w3.org/2001/XMLSchema-instance" xsi:noNamespaceSchemaLocation="http://sumo.dlr.de/xsd/netconvertConfiguration.xsd">

    <input>
        <sumo-net-file value="semaforo.net.xml"/>
    </input>

    <output>
        <plain-output-prefix value="semaforoS"/>
    </output>

    <processing>
        <no-turnarounds value="true"/>
        <offset.disable-normalization value="true"/>
        <lefthand value="false"/>
        <junctions.corner-detail value="0"/>
        <rectangular-lane-cut value="false"/>
        <walkingareas value="false"/>
    </processing>

</configuration>
-->

<tlLogics version="0.27" xmlns:xsi="http://www.w3.org/2001/XMLSchema-instance" xsi:noNamespaceSchemaLocation="http://sumo.dlr.de/xsd/tllogic_file.xsd">
    <tlLogic id="1559454426" type="static" programID="0" offset="0">
        <phase duration="79" state="GGgGGg"/>
        <phase duration="6"  state="yyyyyy"/>
        <phase duration="5"  state="rrrrrr"/>
    </tlLogic>
    <tlLogic id="206231053" type="static" programID="0" offset="0">
        <phase duration="79" state="G"/>
        <phase duration="6"  state="y"/>
        <phase duration="5"  state="r"/>
    </tlLogic>
    <tlLogic id="262573149" type="static" programID="0" offset="0">
        <phase duration="39" state="GGGggrrrrGGGggrrrr"/>
        <phase duration="6"  state="yyyyyrrrryyyyyrrrr"/>
        <phase duration="39" state="rrrrrGGggrrrrrGGgg"/>
        <phase duration="6"  state="rrrrryyyyrrrrryyyy"/>
    </tlLogic>
    <tlLogic id="404731154" type="static" programID="0" offset="0">
        <phase duration="79" state="GGgGGg"/>
        <phase duration="6"  state="yyyyyy"/>
        <phase duration="5"  state="rrrrrr"/>
    </tlLogic>
    <tlLogic id="408455094" type="static" programID="0" offset="0">
        <phase duration="80" state="GgGg"/>
        <phase duration="5"  state="yyyy"/>
        <phase duration="5"  state="rrrr"/>
    </tlLogic>

    <connection from="-142497502#0" to="142497502#0" fromLane="1" toLane="1" tl="206231053" linkIndex="0"/>
    <connection from="-142497502#1" to="-142497502#0" fromLane="0" toLane="0" tl="1559454426" linkIndex="3"/>
    <connection from="-142497502#1" to="-142497502#0" fromLane="1" toLane="1" tl="1559454426" linkIndex="4"/>
    <connection from="-142497502#1" to="142497502#1" fromLane="1" toLane="1" tl="1559454426" linkIndex="5"/>
    <connection from="-142497502#2" to="-142497502#1" fromLane="0" toLane="0" tl="404731154" linkIndex="3"/>
    <connection from="-142497502#2" to="-142497502#1" fromLane="1" toLane="1" tl="404731154" linkIndex="4"/>
    <connection from="-142497502#2" to="142497502#2" fromLane="1" toLane="1" tl="404731154" linkIndex="5"/>
    <connection from="-142497502#3" to="-396555616#0" fromLane="0" toLane="0" tl="262573149" linkIndex="9"/>
    <connection from="-142497502#3" to="-142497502#2" fromLane="0" toLane="0" tl="262573149" linkIndex="10"/>
    <connection from="-142497502#3" to="-142497502#2" fromLane="1" toLane="1" tl="262573149" linkIndex="11"/>
    <connection from="-142497502#3" to="396555616#1" fromLane="1" toLane="0" tl="262573149" linkIndex="12"/>
    <connection from="-142497502#3" to="142497502#3" fromLane="1" toLane="1" tl="262573149" linkIndex="13"/>
    <connection from="-34894793#1" to="-34894793#0" fromLane="0" toLane="0" tl="408455094" linkIndex="0"/>
    <connection from="-34894793#1" to="34894793#1" fromLane="0" toLane="0" tl="408455094" linkIndex="1"/>
    <connection from="-396555616#1" to="142497502#3" fromLane="0" toLane="0" tl="262573149" linkIndex="14"/>
    <connection from="-396555616#1" to="-396555616#0" fromLane="0" toLane="0" tl="262573149" linkIndex="15"/>
    <connection from="-396555616#1" to="-142497502#2" fromLane="0" toLane="1" tl="262573149" linkIndex="16"/>
    <connection from="-396555616#1" to="396555616#1" fromLane="0" toLane="0" tl="262573149" linkIndex="17"/>
    <connection from="142497502#0" to="142497502#1" fromLane="0" toLane="0" tl="1559454426" linkIndex="0"/>
    <connection from="142497502#0" to="142497502#1" fromLane="1" toLane="1" tl="1559454426" linkIndex="1"/>
    <connection from="142497502#0" to="-142497502#0" fromLane="1" toLane="1" tl="1559454426" linkIndex="2"/>
    <connection from="142497502#1" to="142497502#2" fromLane="0" toLane="0" tl="404731154" linkIndex="0"/>
    <connection from="142497502#1" to="142497502#2" fromLane="1" toLane="1" tl="404731154" linkIndex="1"/>
    <connection from="142497502#1" to="-142497502#1" fromLane="1" toLane="1" tl="404731154" linkIndex="2"/>
    <connection from="142497502#2" to="396555616#1" fromLane="0" toLane="0" tl="262573149" linkIndex="0"/>
    <connection from="142497502#2" to="142497502#3" fromLane="0" toLane="0" tl="262573149" linkIndex="1"/>
    <connection from="142497502#2" to="142497502#3" fromLane="1" toLane="1" tl="262573149" linkIndex="2"/>
    <connection from="142497502#2" to="-396555616#0" fromLane="1" toLane="0" tl="262573149" linkIndex="3"/>
    <connection from="142497502#2" to="-142497502#2" fromLane="1" toLane="1" tl="262573149" linkIndex="4"/>
    <connection from="34894793#0" to="34894793#1" fromLane="0" toLane="0" tl="408455094" linkIndex="2"/>
    <connection from="34894793#0" to="-34894793#0" fromLane="0" toLane="0" tl="408455094" linkIndex="3"/>
    <connection from="396555616#0" to="-142497502#2" fromLane="0" toLane="0" tl="262573149" linkIndex="5"/>
    <connection from="396555616#0" to="396555616#1" fromLane="0" toLane="0" tl="262573149" linkIndex="6"/>
    <connection from="396555616#0" to="142497502#3" fromLane="0" toLane="1" tl="262573149" linkIndex="7"/>
    <connection from="396555616#0" to="-396555616#0" fromLane="0" toLane="0" tl="262573149" linkIndex="8"/>
</tlLogics>
