<?xml version="1.0" encoding="UTF-8"?>

<!-- generated on Mon Oct 29 13:00:17 2018 by Eclipse SUMO netconvert Version 60efd76
<configuration xmlns:xsi="http://www.w3.org/2001/XMLSchema-instance" xsi:noNamespaceSchemaLocation="http://sumo.dlr.de/xsd/netconvertConfiguration.xsd">

    <input>
        <sumo-net-file value="semaforo.net.xml"/>
    </input>

    <output>
        <plain-output-prefix value="semaforoS"/>
    </output>

    <processing>
        <no-turnarounds value="true"/>
        <offset.disable-normalization value="true"/>
        <lefthand value="false"/>
        <junctions.corner-detail value="0"/>
        <rectangular-lane-cut value="false"/>
        <walkingareas value="false"/>
    </processing>

</configuration>
-->

<nodes version="0.27" xmlns:xsi="http://www.w3.org/2001/XMLSchema-instance" xsi:noNamespaceSchemaLocation="http://sumo.dlr.de/xsd/nodes_file.xsd">
    <location netOffset="-265899.13,-5037825.54" convBoundary="0.00,0.00,3395.30,2655.86" origBoundary="12.005467,45.452393,12.064903,45.479234" projParameter="+proj=utm +zone=33 +ellps=WGS84 +datum=WGS84 +units=m +no_defs"/>

    <node id="1559454426" x="1961.34" y="2640.60" type="traffic_light" tl="1559454426"/>
    <node id="206231053" x="1965.12" y="2655.86" type="traffic_light" tl="206231053"/>
    <node id="262573149" x="1346.83" y="620.60" type="traffic_light" tl="262573149"/>
    <node id="3993684186" x="0.00" y="1029.38" type="priority"/>
    <node id="404731154" x="1757.60" y="1977.57" type="traffic_light" tl="404731154"/>
    <node id="408455094" x="2023.80" y="415.68" type="traffic_light" tl="408455094"/>
    <node id="408560470" x="3395.30" y="0.00" type="priority"/>
    <node id="408560490" x="1377.34" y="612.82" type="traffic_light_unregulated"/>
    <node id="410163861" x="1168.64" y="52.04" type="priority"/>
</nodes>
