<?xml version="1.0" encoding="UTF-8"?>

<!-- generated on Tue Oct 30 15:21:42 2018 by Eclipse SUMO duarouter Version 60efd76
<configuration xmlns:xsi="http://www.w3.org/2001/XMLSchema-instance" xsi:noNamespaceSchemaLocation="http://sumo.dlr.de/xsd/duarouterConfiguration.xsd">

    <input>
        <net-file value="semaforo.net.xml"/>
        <route-files value="trips.trips.xml"/>
    </input>

    <output>
        <output-file value="semaforoSN.rou.xml"/>
        <alternatives-output value="semaforoSN.rou.alt.xml"/>
    </output>

    <processing>
        <ignore-errors value="true"/>
    </processing>

    <time>
        <begin value="0"/>
        <end value="3600"/>
    </time>

    <report>
        <no-warnings value="true"/>
        <no-step-log value="true"/>
    </report>

</configuration>
-->

<routes xmlns:xsi="http://www.w3.org/2001/XMLSchema-instance" xsi:noNamespaceSchemaLocation="http://sumo.dlr.de/xsd/routes_file.xsd">
    <vehicle id="route0" depart="0.00">
        <route edges="-142497502#3 396555616#1"/>
    </vehicle>
    <vehicle id="route1" depart="5.00">
        <route edges="142497502#1 142497502#2 -396555616#0 396555616#0"/>
    </vehicle>
    <vehicle id="route2" depart="10.00">
        <route edges="-34894793#1 -34894793#0 396555616#0 -396555616#0"/>
    </vehicle>
    <vehicle id="route3" depart="15.00">
        <route edges="-34894793#1 -34894793#0 396555616#0"/>
    </vehicle>
    <vehicle id="route4" depart="20.00">
        <route edges="-142497502#3 -396555616#0 34894793#0 -34894793#0"/>
    </vehicle>
    <vehicle id="route5" depart="25.00">
        <route edges="396555616#0 -142497502#2 142497502#2"/>
    </vehicle>
    <vehicle id="route6" depart="30.00">
        <route edges="-142497502#2 142497502#2 142497502#3"/>
    </vehicle>
    <vehicle id="route7" depart="35.00">
        <route edges="142497502#0 142497502#1 142497502#2"/>
    </vehicle>
    <vehicle id="route8" depart="40.00">
        <route edges="-396555616#1 -142497502#2 -142497502#1"/>
    </vehicle>
    <vehicle id="route9" depart="45.00">
        <route edges="142497502#1"/>
    </vehicle>
    <vehicle id="route10" depart="50.00">
        <route edges="-396555616#0 396555616#0 -142497502#2 -142497502#1 142497502#1"/>
    </vehicle>
    <vehicle id="route11" depart="55.00">
        <route edges="-396555616#0 34894793#0 -34894793#0"/>
    </vehicle>
    <vehicle id="route12" depart="60.00">
        <route edges="142497502#2 -396555616#0"/>
    </vehicle>
    <vehicle id="route13" depart="65.00">
        <route edges="-396555616#0 396555616#0 -142497502#2 -142497502#1 -142497502#0"/>
    </vehicle>
    <vehicle id="route14" depart="70.00">
        <route edges="34894793#0 -34894793#0 396555616#0 -396555616#0"/>
    </vehicle>
    <vehicle id="route15" depart="75.00">
        <route edges="142497502#0 142497502#1 142497502#2 -396555616#0 34894793#0 34894793#1"/>
    </vehicle>
    <vehicle id="route16" depart="80.00">
        <route edges="-142497502#2 -142497502#1 142497502#1"/>
    </vehicle>
    <vehicle id="route17" depart="85.00">
        <route edges="-396555616#1 -142497502#2 142497502#2"/>
    </vehicle>
    <vehicle id="route18" depart="90.00">
        <route edges="142497502#0 142497502#1 142497502#2 -396555616#0 34894793#0 34894793#1"/>
    </vehicle>
    <vehicle id="route19" depart="95.00">
        <route edges="-142497502#3 -396555616#0 396555616#0"/>
    </vehicle>
    <vehicle id="route20" depart="100.00">
        <route edges="-34894793#1 -34894793#0 396555616#0 -142497502#2 -142497502#1"/>
    </vehicle>
    <vehicle id="route21" depart="105.00">
        <route edges="142497502#1 142497502#2 -142497502#2"/>
    </vehicle>
    <vehicle id="route22" depart="110.00">
        <route edges="-142497502#3 -142497502#2 -142497502#1"/>
    </vehicle>
    <vehicle id="route23" depart="115.00">
        <route edges="-142497502#1 -142497502#0"/>
    </vehicle>
    <vehicle id="route24" depart="120.00">
        <route edges="-34894793#0 34894793#0 34894793#1"/>
    </vehicle>
    <vehicle id="route25" depart="125.00">
        <route edges="-142497502#1 -142497502#0"/>
    </vehicle>
    <vehicle id="route26" depart="130.00">
        <route edges="-34894793#0 396555616#0 -142497502#2 142497502#2"/>
    </vehicle>
    <vehicle id="route27" depart="135.00">
        <route edges="396555616#0 396555616#1"/>
    </vehicle>
    <vehicle id="route28" depart="140.00">
        <route edges="142497502#1 142497502#2"/>
    </vehicle>
    <vehicle id="route29" depart="145.00">
        <route edges="142497502#0 142497502#1 142497502#2 -396555616#0"/>
    </vehicle>
    <vehicle id="route30" depart="150.00">
        <route edges="142497502#0 142497502#1 142497502#2 -396555616#0"/>
    </vehicle>
    <vehicle id="route31" depart="155.00">
        <route edges="142497502#0 142497502#1 142497502#2 -396555616#0 34894793#0 -34894793#0"/>
    </vehicle>
    <vehicle id="route32" depart="160.00">
        <route edges="396555616#0 -142497502#2 -142497502#1 142497502#1"/>
    </vehicle>
    <vehicle id="route33" depart="165.00">
        <route edges="-396555616#1 -142497502#2 142497502#2"/>
    </vehicle>
    <vehicle id="route34" depart="170.00">
        <route edges="-142497502#3 -396555616#0 396555616#0"/>
    </vehicle>
    <vehicle id="route35" depart="175.00">
        <route edges="142497502#2 -396555616#0"/>
    </vehicle>
    <vehicle id="route36" depart="180.00">
        <route edges="-142497502#1 142497502#1 142497502#2 -396555616#0 396555616#0"/>
    </vehicle>
    <vehicle id="route37" depart="185.00">
        <route edges="142497502#0 142497502#1 142497502#2 396555616#1"/>
    </vehicle>
    <vehicle id="route38" depart="190.00">
        <route edges="-396555616#0 396555616#0"/>
    </vehicle>
    <vehicle id="route39" depart="195.00">
        <route edges="-142497502#1 142497502#1 142497502#2 -396555616#0 34894793#0"/>
    </vehicle>
    <vehicle id="route40" depart="200.00">
        <route edges="-142497502#1 142497502#1 142497502#2 396555616#1"/>
    </vehicle>
    <vehicle id="route41" depart="205.00">
        <route edges="-142497502#2 142497502#2 -396555616#0 34894793#0 -34894793#0"/>
    </vehicle>
    <vehicle id="route42" depart="210.00">
        <route edges="142497502#2 -396555616#0 34894793#0 -34894793#0"/>
    </vehicle>
    <vehicle id="route43" depart="215.00">
        <route edges="-34894793#0 34894793#0"/>
    </vehicle>
    <vehicle id="route44" depart="220.00">
        <route edges="396555616#0 -396555616#0 34894793#0 -34894793#0"/>
    </vehicle>
    <vehicle id="route45" depart="225.00">
        <route edges="396555616#0 -396555616#0 34894793#0 34894793#1"/>
    </vehicle>
    <vehicle id="route46" depart="230.00">
        <route edges="396555616#0 -396555616#0 34894793#0 34894793#1"/>
    </vehicle>
    <vehicle id="route47" depart="235.00">
        <route edges="-142497502#3 -142497502#2"/>
    </vehicle>
    <vehicle id="route48" depart="240.00">
        <route edges="-396555616#1 -396555616#0 34894793#0"/>
    </vehicle>
    <vehicle id="route49" depart="245.00">
        <route edges="396555616#0 -142497502#2 -142497502#1 142497502#1"/>
    </vehicle>
    <vehicle id="route50" depart="250.00">
        <route edges="142497502#0 142497502#1 -142497502#1"/>
    </vehicle>
    <vehicle id="route51" depart="255.00">
        <route edges="-142497502#1 142497502#1 142497502#2 396555616#1"/>
    </vehicle>
    <vehicle id="route52" depart="260.00">
        <route edges="-34894793#0 396555616#0"/>
    </vehicle>
    <vehicle id="route53" depart="265.00">
        <route edges="-396555616#0 396555616#0 -142497502#2"/>
    </vehicle>
    <vehicle id="route54" depart="270.00">
        <route edges="-142497502#2 142497502#2 -396555616#0"/>
    </vehicle>
    <vehicle id="route55" depart="275.00">
        <route edges="-142497502#3 -396555616#0 396555616#0"/>
    </vehicle>
    <vehicle id="route56" depart="280.00">
        <route edges="396555616#0 -396555616#0 34894793#0 34894793#1"/>
    </vehicle>
    <vehicle id="route57" depart="285.00">
        <route edges="-396555616#0 34894793#0 -34894793#0"/>
    </vehicle>
    <vehicle id="route58" depart="290.00">
        <route edges="-142497502#1 142497502#1 142497502#2 -142497502#2"/>
    </vehicle>
    <vehicle id="route59" depart="295.00">
        <route edges="396555616#0 -396555616#0"/>
    </vehicle>
    <vehicle id="route60" depart="300.00">
        <route edges="142497502#2 142497502#3"/>
    </vehicle>
    <vehicle id="route61" depart="305.00">
        <route edges="-142497502#1 142497502#1 142497502#2 -396555616#0 34894793#0 34894793#1"/>
    </vehicle>
    <vehicle id="route62" depart="310.00">
        <route edges="-34894793#1 -34894793#0 396555616#0 -396555616#0"/>
    </vehicle>
    <vehicle id="route63" depart="315.00">
        <route edges="-396555616#0"/>
    </vehicle>
    <vehicle id="route64" depart="320.00">
        <route edges="-34894793#1 -34894793#0"/>
    </vehicle>
    <vehicle id="route65" depart="325.00">
        <route edges="-142497502#1 142497502#1 142497502#2 -396555616#0 34894793#0"/>
    </vehicle>
    <vehicle id="route66" depart="330.00">
        <route edges="-396555616#0 396555616#0"/>
    </vehicle>
    <vehicle id="route67" depart="335.00">
        <route edges="142497502#2 -142497502#2"/>
    </vehicle>
    <vehicle id="route68" depart="340.00">
        <route edges="-142497502#1 142497502#1 142497502#2 396555616#1"/>
    </vehicle>
    <vehicle id="route69" depart="345.00">
        <route edges="-34894793#0 396555616#0"/>
    </vehicle>
    <vehicle id="route70" depart="350.00">
        <route edges="142497502#0 142497502#1 142497502#2 -142497502#2"/>
    </vehicle>
    <vehicle id="route71" depart="355.00">
        <route edges="142497502#2"/>
    </vehicle>
    <vehicle id="route72" depart="360.00">
        <route edges="34894793#0 -34894793#0 396555616#0 -396555616#0"/>
    </vehicle>
    <vehicle id="route73" depart="365.00">
        <route edges="-396555616#0 396555616#0 -142497502#2 -142497502#1 -142497502#0"/>
    </vehicle>
    <vehicle id="route74" depart="370.00">
        <route edges="-34894793#1 34894793#1"/>
    </vehicle>
    <vehicle id="route75" depart="375.00">
        <route edges="-34894793#1 -34894793#0 396555616#0 -142497502#2 142497502#2"/>
    </vehicle>
    <vehicle id="route76" depart="380.00">
        <route edges="-396555616#0 396555616#0 -142497502#2 -142497502#1"/>
    </vehicle>
    <vehicle id="route77" depart="385.00">
        <route edges="142497502#2 142497502#3"/>
    </vehicle>
    <vehicle id="route78" depart="390.00">
        <route edges="-34894793#0 396555616#0 -142497502#2 142497502#2"/>
    </vehicle>
    <vehicle id="route79" depart="395.00">
        <route edges="-142497502#1 142497502#1 142497502#2 -396555616#0 34894793#0 34894793#1"/>
    </vehicle>
    <vehicle id="route80" depart="400.00">
        <route edges="-34894793#1 -34894793#0 396555616#0 -396555616#0"/>
    </vehicle>
    <vehicle id="route81" depart="405.00">
        <route edges="-396555616#0 396555616#0 -142497502#2 -142497502#1"/>
    </vehicle>
    <vehicle id="route82" depart="410.00">
        <route edges="34894793#0 -34894793#0 396555616#0 396555616#1"/>
    </vehicle>
    <vehicle id="route83" depart="415.00">
        <route edges="-34894793#1 -34894793#0 396555616#0"/>
    </vehicle>
    <vehicle id="route84" depart="420.00">
        <route edges="-34894793#1 -34894793#0 396555616#0"/>
    </vehicle>
    <vehicle id="route85" depart="425.00">
        <route edges="-396555616#1 -142497502#2 -142497502#1"/>
    </vehicle>
    <vehicle id="route86" depart="430.00">
        <route edges="-142497502#1 -142497502#0"/>
    </vehicle>
    <vehicle id="route87" depart="435.00">
        <route edges="396555616#0 -142497502#2"/>
    </vehicle>
    <vehicle id="route88" depart="440.00">
        <route edges="-34894793#0 396555616#0"/>
    </vehicle>
    <vehicle id="route89" depart="445.00">
        <route edges="-396555616#0 396555616#0 396555616#1"/>
    </vehicle>
    <vehicle id="route90" depart="450.00">
        <route edges="396555616#0 -142497502#2 -142497502#1"/>
    </vehicle>
    <vehicle id="route91" depart="455.00">
        <route edges="34894793#0 -34894793#0 396555616#0 -142497502#2"/>
    </vehicle>
    <vehicle id="route92" depart="460.00">
        <route edges="-396555616#1 -396555616#0"/>
    </vehicle>
    <vehicle id="route93" depart="465.00">
        <route edges="142497502#0 142497502#1 142497502#2 142497502#3"/>
    </vehicle>
    <vehicle id="route94" depart="470.00">
        <route edges="-34894793#0 396555616#0 396555616#1"/>
    </vehicle>
    <vehicle id="route95" depart="475.00">
        <route edges="142497502#1 142497502#2 -396555616#0"/>
    </vehicle>
    <vehicle id="route96" depart="480.00">
        <route edges="396555616#0 -142497502#2 -142497502#1 142497502#1"/>
    </vehicle>
    <vehicle id="route97" depart="485.00">
        <route edges="-396555616#1 -142497502#2 -142497502#1 -142497502#0"/>
    </vehicle>
    <vehicle id="route98" depart="490.00">
        <route edges="-34894793#0 396555616#0 -142497502#2 -142497502#1"/>
    </vehicle>
    <vehicle id="route99" depart="495.00">
        <route edges="-34894793#1 -34894793#0 396555616#0 142497502#3"/>
    </vehicle>
    <vehicle id="route100" depart="500.00">
        <route edges="-142497502#3 -396555616#0"/>
    </vehicle>
    <vehicle id="route101" depart="505.00">
        <route edges="-396555616#1 -142497502#2"/>
    </vehicle>
    <vehicle id="route102" depart="510.00">
        <route edges="142497502#0 142497502#1 142497502#2 -396555616#0 34894793#0 34894793#1"/>
    </vehicle>
    <vehicle id="route103" depart="515.00">
        <route edges="-142497502#2"/>
    </vehicle>
    <vehicle id="route104" depart="520.00">
        <route edges="-396555616#0 396555616#0 142497502#3"/>
    </vehicle>
    <vehicle id="route105" depart="525.00">
        <route edges="-396555616#0 34894793#0 -34894793#0"/>
    </vehicle>
    <vehicle id="route106" depart="530.00">
        <route edges="-34894793#0 396555616#0 396555616#1"/>
    </vehicle>
    <vehicle id="route107" depart="535.00">
        <route edges="-142497502#2 -142497502#1 -142497502#0"/>
    </vehicle>
    <vehicle id="route108" depart="540.00">
        <route edges="396555616#0 -396555616#0 34894793#0 -34894793#0"/>
    </vehicle>
    <vehicle id="route109" depart="545.00">
        <route edges="34894793#0 -34894793#0 396555616#0"/>
    </vehicle>
    <vehicle id="route110" depart="550.00">
        <route edges="142497502#0 142497502#1 142497502#2 -396555616#0 396555616#0"/>
    </vehicle>
    <vehicle id="route111" depart="555.00">
        <route edges="142497502#2 -396555616#0 34894793#0"/>
    </vehicle>
    <vehicle id="route112" depart="560.00">
        <route edges="-396555616#1 396555616#1"/>
    </vehicle>
    <vehicle id="route113" depart="565.00">
        <route edges="-396555616#1 -142497502#2 -142497502#1 -142497502#0"/>
    </vehicle>
    <vehicle id="route114" depart="570.00">
        <route edges="-34894793#1 34894793#1"/>
    </vehicle>
    <vehicle id="route115" depart="575.00">
        <route edges="142497502#2 142497502#3"/>
    </vehicle>
    <vehicle id="route116" depart="580.00">
        <route edges="142497502#1 142497502#2 -396555616#0 34894793#0 -34894793#0"/>
    </vehicle>
    <vehicle id="route117" depart="585.00">
        <route edges="142497502#2 -142497502#2"/>
    </vehicle>
    <vehicle id="route118" depart="590.00">
        <route edges="396555616#0 -396555616#0 34894793#0 34894793#1"/>
    </vehicle>
    <vehicle id="route119" depart="595.00">
        <route edges="-142497502#2 142497502#2 -396555616#0 396555616#0"/>
    </vehicle>
    <vehicle id="route120" depart="600.00">
        <route edges="-396555616#0 396555616#0 -142497502#2 142497502#2"/>
    </vehicle>
    <vehicle id="route121" depart="605.00">
        <route edges="-396555616#0 396555616#0 396555616#1"/>
    </vehicle>
    <vehicle id="route122" depart="610.00">
        <route edges="142497502#1 -142497502#1 -142497502#0"/>
    </vehicle>
    <vehicle id="route123" depart="615.00">
        <route edges="34894793#0 -34894793#0 396555616#0 -142497502#2 -142497502#1"/>
    </vehicle>
    <vehicle id="route124" depart="620.00">
        <route edges="-142497502#3 -396555616#0 34894793#0 -34894793#0"/>
    </vehicle>
    <vehicle id="route125" depart="625.00">
        <route edges="34894793#0 -34894793#0 396555616#0 -142497502#2 -142497502#1 142497502#1"/>
    </vehicle>
    <vehicle id="route126" depart="630.00">
        <route edges="396555616#0 396555616#1"/>
    </vehicle>
    <vehicle id="route127" depart="635.00">
        <route edges="-142497502#3 -396555616#0"/>
    </vehicle>
    <vehicle id="route128" depart="640.00">
        <route edges="-396555616#0 396555616#0 -142497502#2 142497502#2"/>
    </vehicle>
    <vehicle id="route129" depart="645.00">
        <route edges="-142497502#1 142497502#1 142497502#2 396555616#1"/>
    </vehicle>
    <vehicle id="route130" depart="650.00">
        <route edges="142497502#2 -142497502#2"/>
    </vehicle>
    <vehicle id="route131" depart="655.00">
        <route edges="-396555616#0 34894793#0 -34894793#0"/>
    </vehicle>
    <vehicle id="route132" depart="660.00">
        <route edges="-34894793#0 396555616#0 142497502#3"/>
    </vehicle>
    <vehicle id="route133" depart="665.00">
        <route edges="-34894793#1 34894793#1"/>
    </vehicle>
    <vehicle id="route134" depart="670.00">
        <route edges="-396555616#0 34894793#0 -34894793#0"/>
    </vehicle>
    <vehicle id="route135" depart="675.00">
        <route edges="-396555616#1 -142497502#2 -142497502#1"/>
    </vehicle>
    <vehicle id="route136" depart="680.00">
        <route edges="-34894793#0"/>
    </vehicle>
    <vehicle id="route137" depart="685.00">
        <route edges="396555616#0 -142497502#2 -142497502#1 -142497502#0"/>
    </vehicle>
    <vehicle id="route138" depart="690.00">
        <route edges="-34894793#0 396555616#0 -142497502#2 142497502#2"/>
    </vehicle>
    <vehicle id="route139" depart="695.00">
        <route edges="-396555616#0"/>
    </vehicle>
    <vehicle id="route140" depart="700.00">
        <route edges="34894793#0 -34894793#0 396555616#0 -142497502#2"/>
    </vehicle>
    <vehicle id="route141" depart="705.00">
        <route edges="-142497502#2 -142497502#1 142497502#1"/>
    </vehicle>
    <vehicle id="route142" depart="710.00">
        <route edges="396555616#0 -142497502#2 -142497502#1 142497502#1"/>
    </vehicle>
    <vehicle id="route143" depart="715.00">
        <route edges="34894793#0 -34894793#0 396555616#0 -396555616#0"/>
    </vehicle>
    <vehicle id="route144" depart="720.00">
        <route edges="142497502#2 -396555616#0 34894793#0 34894793#1"/>
    </vehicle>
    <vehicle id="route145" depart="725.00">
        <route edges="396555616#0"/>
    </vehicle>
    <vehicle id="route146" depart="730.00">
        <route edges="-142497502#1 142497502#1 142497502#2 -142497502#2"/>
    </vehicle>
    <vehicle id="route147" depart="735.00">
        <route edges="-142497502#2 -142497502#1 142497502#1"/>
    </vehicle>
    <vehicle id="route148" depart="740.00">
        <route edges="-396555616#0"/>
    </vehicle>
    <vehicle id="route149" depart="745.00">
        <route edges="-34894793#0 396555616#0 -142497502#2 -142497502#1"/>
    </vehicle>
    <vehicle id="route150" depart="750.00">
        <route edges="-34894793#1 -34894793#0 396555616#0 -396555616#0"/>
    </vehicle>
    <vehicle id="route151" depart="755.00">
        <route edges="-142497502#3 -142497502#2 -142497502#1 -142497502#0"/>
    </vehicle>
    <vehicle id="route152" depart="760.00">
        <route edges="-34894793#0 396555616#0 -396555616#0"/>
    </vehicle>
    <vehicle id="route153" depart="765.00">
        <route edges="-396555616#0 396555616#0 -142497502#2 -142497502#1"/>
    </vehicle>
    <vehicle id="route154" depart="770.00">
        <route edges="-396555616#0 396555616#0 -142497502#2 -142497502#1 142497502#1"/>
    </vehicle>
    <vehicle id="route155" depart="775.00">
        <route edges="142497502#0 142497502#1 142497502#2 142497502#3"/>
    </vehicle>
    <vehicle id="route156" depart="780.00">
        <route edges="396555616#0 -142497502#2 -142497502#1"/>
    </vehicle>
    <vehicle id="route157" depart="785.00">
        <route edges="-396555616#1 -142497502#2"/>
    </vehicle>
    <vehicle id="route158" depart="790.00">
        <route edges="142497502#1"/>
    </vehicle>
    <vehicle id="route159" depart="795.00">
        <route edges="142497502#1"/>
    </vehicle>
    <vehicle id="route160" depart="800.00">
        <route edges="142497502#2 -396555616#0 396555616#0"/>
    </vehicle>
    <vehicle id="route161" depart="805.00">
        <route edges="34894793#0 34894793#1"/>
    </vehicle>
    <vehicle id="route162" depart="810.00">
        <route edges="-396555616#0 396555616#0 -142497502#2 -142497502#1 -142497502#0"/>
    </vehicle>
    <vehicle id="route163" depart="815.00">
        <route edges="-142497502#1 142497502#1 142497502#2 -396555616#0 396555616#0"/>
    </vehicle>
    <vehicle id="route164" depart="820.00">
        <route edges="-396555616#0 396555616#0 -142497502#2 -142497502#1 -142497502#0"/>
    </vehicle>
    <vehicle id="route165" depart="825.00">
        <route edges="142497502#2 396555616#1"/>
    </vehicle>
    <vehicle id="route166" depart="830.00">
        <route edges="-396555616#0 396555616#0 -142497502#2 142497502#2"/>
    </vehicle>
    <vehicle id="route167" depart="835.00">
        <route edges="396555616#0 -142497502#2 -142497502#1 142497502#1"/>
    </vehicle>
    <vehicle id="route168" depart="840.00">
        <route edges="34894793#0"/>
    </vehicle>
    <vehicle id="route169" depart="845.00">
        <route edges="-142497502#3 -396555616#0 34894793#0 -34894793#0"/>
    </vehicle>
    <vehicle id="route170" depart="850.00">
        <route edges="-396555616#1 -142497502#2 -142497502#1"/>
    </vehicle>
    <vehicle id="route171" depart="855.00">
        <route edges="-142497502#1 142497502#1 142497502#2 -396555616#0 34894793#0"/>
    </vehicle>
    <vehicle id="route172" depart="860.00">
        <route edges="-396555616#1 -396555616#0 34894793#0 34894793#1"/>
    </vehicle>
    <vehicle id="route173" depart="865.00">
        <route edges="-34894793#1 34894793#1"/>
    </vehicle>
    <vehicle id="route174" depart="870.00">
        <route edges="34894793#0 -34894793#0 396555616#0 -396555616#0"/>
    </vehicle>
    <vehicle id="route175" depart="875.00">
        <route edges="34894793#0 -34894793#0 396555616#0 -142497502#2 -142497502#1 142497502#1"/>
    </vehicle>
    <vehicle id="route176" depart="880.00">
        <route edges="-142497502#3 142497502#3"/>
    </vehicle>
    <vehicle id="route177" depart="885.00">
        <route edges="142497502#1 142497502#2 -396555616#0 396555616#0"/>
    </vehicle>
    <vehicle id="route178" depart="890.00">
        <route edges="-142497502#1 142497502#1 142497502#2 -142497502#2"/>
    </vehicle>
    <vehicle id="route179" depart="895.00">
        <route edges="-34894793#1 -34894793#0 396555616#0 142497502#3"/>
    </vehicle>
    <vehicle id="route180" depart="900.00">
        <route edges="-142497502#3 -396555616#0 34894793#0"/>
    </vehicle>
    <vehicle id="route181" depart="905.00">
        <route edges="-396555616#0 396555616#0 396555616#1"/>
    </vehicle>
    <vehicle id="route182" depart="910.00">
        <route edges="-142497502#1 142497502#1 142497502#2 -396555616#0 34894793#0 -34894793#0"/>
    </vehicle>
    <vehicle id="route183" depart="915.00">
        <route edges="-34894793#0 396555616#0 -142497502#2"/>
    </vehicle>
    <vehicle id="route184" depart="920.00">
        <route edges="396555616#0 -396555616#0 34894793#0 -34894793#0"/>
    </vehicle>
    <vehicle id="route185" depart="925.00">
        <route edges="396555616#0"/>
    </vehicle>
    <vehicle id="route186" depart="930.00">
        <route edges="396555616#0 -396555616#0 34894793#0"/>
    </vehicle>
    <vehicle id="route187" depart="935.00">
        <route edges="34894793#0 -34894793#0 396555616#0 -142497502#2 142497502#2"/>
    </vehicle>
    <vehicle id="route188" depart="940.00">
        <route edges="-34894793#1 -34894793#0 396555616#0"/>
    </vehicle>
    <vehicle id="route189" depart="945.00">
        <route edges="-142497502#2 -142497502#1"/>
    </vehicle>
    <vehicle id="route190" depart="950.00">
        <route edges="-34894793#1 34894793#1"/>
    </vehicle>
    <vehicle id="route191" depart="955.00">
        <route edges="-34894793#0 34894793#0"/>
    </vehicle>
    <vehicle id="route192" depart="960.00">
        <route edges="-396555616#0"/>
    </vehicle>
    <vehicle id="route193" depart="965.00">
        <route edges="-396555616#0 396555616#0 -142497502#2 -142497502#1 -142497502#0"/>
    </vehicle>
    <vehicle id="route194" depart="970.00">
        <route edges="-34894793#0"/>
    </vehicle>
    <vehicle id="route195" depart="975.00">
        <route edges="-396555616#0 396555616#0 -142497502#2"/>
    </vehicle>
    <vehicle id="route196" depart="980.00">
        <route edges="142497502#0 -142497502#0"/>
    </vehicle>
    <vehicle id="route197" depart="985.00">
        <route edges="-396555616#0 396555616#0 -142497502#2 -142497502#1"/>
    </vehicle>
    <vehicle id="route198" depart="990.00">
        <route edges="-142497502#3 -396555616#0 34894793#0"/>
    </vehicle>
    <vehicle id="route199" depart="995.00">
        <route edges="-34894793#1 -34894793#0 396555616#0 396555616#1"/>
    </vehicle>
    <vehicle id="route200" depart="1000.00">
        <route edges="-142497502#2 142497502#2 -396555616#0 34894793#0 34894793#1"/>
    </vehicle>
    <vehicle id="route201" depart="1005.00">
        <route edges="396555616#0 -396555616#0"/>
    </vehicle>
    <vehicle id="route202" depart="1010.00">
        <route edges="-142497502#1 142497502#1 142497502#2 396555616#1"/>
    </vehicle>
    <vehicle id="route203" depart="1015.00">
        <route edges="34894793#0 -34894793#0"/>
    </vehicle>
    <vehicle id="route204" depart="1020.00">
        <route edges="142497502#0 142497502#1 142497502#2 -142497502#2"/>
    </vehicle>
    <vehicle id="route205" depart="1025.00">
        <route edges="396555616#0 396555616#1"/>
    </vehicle>
    <vehicle id="route206" depart="1030.00">
        <route edges="-142497502#2 142497502#2"/>
    </vehicle>
    <vehicle id="route207" depart="1035.00">
        <route edges="396555616#0 -142497502#2"/>
    </vehicle>
    <vehicle id="route208" depart="1040.00">
        <route edges="-142497502#3 142497502#3"/>
    </vehicle>
    <vehicle id="route209" depart="1045.00">
        <route edges="142497502#2 396555616#1"/>
    </vehicle>
    <vehicle id="route210" depart="1050.00">
        <route edges="34894793#0 -34894793#0"/>
    </vehicle>
    <vehicle id="route211" depart="1055.00">
        <route edges="-142497502#3 142497502#3"/>
    </vehicle>
    <vehicle id="route212" depart="1060.00">
        <route edges="-142497502#1 142497502#1 142497502#2 -396555616#0 34894793#0 34894793#1"/>
    </vehicle>
    <vehicle id="route213" depart="1065.00">
        <route edges="142497502#0 142497502#1 142497502#2 396555616#1"/>
    </vehicle>
    <vehicle id="route214" depart="1070.00">
        <route edges="396555616#0 -396555616#0 34894793#0"/>
    </vehicle>
    <vehicle id="route215" depart="1075.00">
        <route edges="142497502#2 -396555616#0 34894793#0"/>
    </vehicle>
    <vehicle id="route216" depart="1080.00">
        <route edges="-34894793#0 396555616#0 -142497502#2 -142497502#1 142497502#1"/>
    </vehicle>
    <vehicle id="route217" depart="1085.00">
        <route edges="-142497502#1 142497502#1 142497502#2 -396555616#0 34894793#0 -34894793#0"/>
    </vehicle>
    <vehicle id="route218" depart="1090.00">
        <route edges="-142497502#1 142497502#1 142497502#2 142497502#3"/>
    </vehicle>
    <vehicle id="route219" depart="1095.00">
        <route edges="396555616#0 -142497502#2 -142497502#1 142497502#1"/>
    </vehicle>
    <vehicle id="route220" depart="1100.00">
        <route edges="142497502#0 142497502#1 142497502#2 -396555616#0 34894793#0"/>
    </vehicle>
    <vehicle id="route221" depart="1105.00">
        <route edges="142497502#1 142497502#2 -396555616#0 34894793#0 -34894793#0"/>
    </vehicle>
    <vehicle id="route222" depart="1110.00">
        <route edges="396555616#0 -142497502#2"/>
    </vehicle>
    <vehicle id="route223" depart="1115.00">
        <route edges="34894793#0 -34894793#0 396555616#0 -396555616#0"/>
    </vehicle>
    <vehicle id="route224" depart="1120.00">
        <route edges="-396555616#0 34894793#0"/>
    </vehicle>
    <vehicle id="route225" depart="1125.00">
        <route edges="-142497502#2 142497502#2 -396555616#0 34894793#0 34894793#1"/>
    </vehicle>
    <vehicle id="route226" depart="1130.00">
        <route edges="142497502#2 -142497502#2"/>
    </vehicle>
    <vehicle id="route227" depart="1135.00">
        <route edges="142497502#2 -142497502#2"/>
    </vehicle>
    <vehicle id="route228" depart="1140.00">
        <route edges="142497502#2 -142497502#2 -142497502#1 -142497502#0"/>
    </vehicle>
    <vehicle id="route229" depart="1145.00">
        <route edges="-396555616#1 -142497502#2 -142497502#1 142497502#1"/>
    </vehicle>
    <vehicle id="route230" depart="1150.00">
        <route edges="142497502#2 -142497502#2"/>
    </vehicle>
    <vehicle id="route231" depart="1155.00">
        <route edges="142497502#1"/>
    </vehicle>
    <vehicle id="route232" depart="1160.00">
        <route edges="-396555616#0 34894793#0 -34894793#0"/>
    </vehicle>
    <vehicle id="route233" depart="1165.00">
        <route edges="-396555616#1 396555616#1"/>
    </vehicle>
    <vehicle id="route234" depart="1170.00">