<?xml version="1.0" encoding="UTF-8"?>

<!-- generated on Thu Oct 25 16:45:11 2018 by Eclipse SUMO netconvert Version 60efd76
<configuration xmlns:xsi="http://www.w3.org/2001/XMLSchema-instance" xsi:noNamespaceSchemaLocation="http://sumo.dlr.de/xsd/netconvertConfiguration.xsd">

    <input>
        <osm-files value="semaforo.osm"/>
    </input>

    <output>
        <output-file value="semaforo.net.xml"/>
    </output>

    <projection>
        <proj.utm value="true"/>
    </projection>

</configuration>
-->

<net version="0.27" xmlns:xsi="http://www.w3.org/2001/XMLSchema-instance" xsi:noNamespaceSchemaLocation="http://sumo.dlr.de/xsd/net_file.xsd">

    <location netOffset="-265899.13,-5037825.54" convBoundary="0.00,0.00,3395.30,2655.86" origBoundary="12.005467,45.452393,12.064903,45.479234" projParameter="+proj=utm +zone=33 +ellps=WGS84 +datum=WGS84 +units=m +no_defs"/>

    <type id="highway.bridleway" priority="1" numLanes="1" speed="2.78" allow="pedestrian" oneway="1" width="2.00"/>
    <type id="highway.bus_guideway" priority="1" numLanes="1" speed="27.78" allow="bus" oneway="1"/>
    <type id="highway.cycleway" priority="1" numLanes="1" speed="8.33" allow="bicycle" oneway="0" width="1.00"/>
    <type id="highway.footway" priority="1" numLanes="1" speed="2.78" allow="pedestrian" oneway="1" width="2.00"/>
    <type id="highway.ford" priority="1" numLanes="1" speed="2.78" allow="army" oneway="0"/>
    <type id="highway.living_street" priority="3" numLanes="1" speed="2.78" disallow="tram rail_urban rail rail_electric ship automated" oneway="0"/>
    <type id="highway.motorway" priority="13" numLanes="2" speed="44.44" allow="private emergency authority army vip passenger hov taxi bus coach delivery truck trailer motorcycle evehicle custom1 custom2" oneway="1"/>
    <type id="highway.motorway_link" priority="12" numLanes="1" speed="22.22" allow="private emergency authority army vip passenger hov taxi bus coach delivery truck trailer motorcycle evehicle custom1 custom2" oneway="1"/>
    <type id="highway.path" priority="1" numLanes="1" speed="2.78" allow="bicycle pedestrian" oneway="1" width="2.00"/>
    <type id="highway.pedestrian" priority="1" numLanes="1" speed="2.78" allow="pedestrian" oneway="1" width="2.00"/>
    <type id="highway.primary" priority="9" numLanes="2" speed="27.78" disallow="tram rail_urban rail rail_electric ship automated" oneway="0"/>
    <type id="highway.primary_link" priority="8" numLanes="1" speed="22.22" disallow="tram rail_urban rail rail_electric ship automated" oneway="0"/>
    <type id="highway.raceway" priority="14" numLanes="2" speed="83.33" allow="vip" oneway="0"/>
    <type id="highway.residential" priority="4" numLanes="1" speed="13.89" disallow="tram rail_urban rail rail_electric ship automated" oneway="0"/>
    <type id="highway.secondary" priority="7" numLanes="2" speed="27.78" disallow="tram rail_urban rail rail_electric ship automated" oneway="0"/>
    <type id="highway.secondary_link" priority="6" numLanes="1" speed="22.22" disallow="tram rail_urban rail rail_electric ship automated" oneway="0"/>
    <type id="highway.service" priority="2" numLanes="1" speed="5.56" allow="delivery bicycle pedestrian" oneway="0"/>
    <type id="highway.services" priority="1" numLanes="1" speed="8.33" disallow="tram rail_urban rail rail_electric ship automated" oneway="0"/>
    <type id="highway.stairs" priority="1" numLanes="1" speed="1.39" allow="pedestrian" oneway="1" width="2.00"/>
    <type id="highway.step" priority="1" numLanes="1" speed="1.39" allow="pedestrian" oneway="1" width="2.00"/>
    <type id="highway.steps" priority="1" numLanes="1" speed="1.39" allow="pedestrian" oneway="1" width="2.00"/>
    <type id="highway.tertiary" priority="6" numLanes="1" speed="22.22" disallow="tram rail_urban rail rail_electric ship automated" oneway="0"/>
    <type id="highway.tertiary_link" priority="5" numLanes="1" speed="22.22" disallow="tram rail_urban rail rail_electric ship automated" oneway="0"/>
    <type id="highway.track" priority="1" numLanes="1" speed="5.56" disallow="tram rail_urban rail rail_electric ship automated" oneway="0"/>
    <type id="highway.trunk" priority="11" numLanes="2" speed="27.78" allow="private emergency authority army vip passenger hov taxi bus coach delivery truck trailer motorcycle moped evehicle custom1 custom2" oneway="0"/>
    <type id="highway.trunk_link" priority="10" numLanes="1" speed="22.22" allow="private emergency authority army vip passenger hov taxi bus coach delivery truck trailer motorcycle moped evehicle custom1 custom2" oneway="0"/>
    <type id="highway.unclassified" priority="5" numLanes="1" speed="13.89" disallow="tram rail_urban rail rail_electric ship automated" oneway="0"/>
    <type id="highway.unsurfaced" priority="1" numLanes="1" speed="8.33" disallow="tram rail_urban rail rail_electric ship automated" oneway="0"/>
    <type id="railway.light_rail" priority="15" numLanes="1" speed="27.78" allow="rail_urban" oneway="1"/>
    <type id="railway.preserved" priority="15" numLanes="1" speed="27.78" allow="rail" oneway="1"/>
    <type id="railway.rail" priority="15" numLanes="1" speed="83.33" allow="rail rail_electric" oneway="1"/>
    <type id="railway.subway" priority="15" numLanes="1" speed="27.78" allow="rail_urban" oneway="1"/>
    <type id="railway.tram" priority="15" numLanes="1" speed="13.89" allow="tram" oneway="1"/>

    <edge id=":1559454426_0" function="internal">
        <lane id=":1559454426_0_0" index="0" disallow="tram rail_urban rail rail_electric ship automated" speed="27.78" length="0.18" shape="1956.72,2641.93 1956.70,2641.85"/>
        <lane id=":1559454426_0_1" index="1" disallow="tram rail_urban rail rail_electric ship automated" speed="27.78" length="0.18" shape="1959.83,2641.16 1959.76,2640.91"/>
    </edge>
    <edge id=":1559454426_2" function="internal">
        <lane id=":1559454426_2_0" index="0" disallow="tram rail_urban rail rail_electric ship automated" speed="27.78" length="2.34" shape="1959.83,2641.16 1960.32,2639.81 1961.00,2639.23"/>
    </edge>
    <edge id=":1559454426_6" function="internal">
        <lane id=":1559454426_6_0" index="0" speed="27.78" length="2.34" shape="1961.00,2639.23 1961.87,2639.42 1962.93,2640.39"/>
    </edge>
    <edge id=":1559454426_3" function="internal">
        <lane id=":1559454426_3_0" index="0" disallow="tram rail_urban rail rail_electric ship automated" speed="27.78" length="0.54" shape="1965.87,2639.02 1966.04,2639.62"/>
        <lane id=":1559454426_3_1" index="1" disallow="tram rail_urban rail rail_electric ship automated" speed="27.78" length="0.54" shape="1962.81,2639.96 1962.93,2640.39"/>
    </edge>
    <edge id=":1559454426_5" function="internal">
        <lane id=":1559454426_5_0" index="0" disallow="tram rail_urban rail rail_electric ship automated" speed="27.78" length="2.34" shape="1962.81,2639.96 1962.40,2641.35 1961.76,2641.96"/>
    </edge>
    <edge id=":1559454426_7" function="internal">
        <lane id=":1559454426_7_0" index="0" speed="27.78" length="2.34" shape="1961.76,2641.96 1960.87,2641.82 1959.76,2640.91"/>
    </edge>
    <edge id=":206231053_0" function="internal">
        <lane id=":206231053_0_0" index="0" disallow="tram rail_urban rail rail_electric ship automated" speed="27.78" length="4.67" shape="1966.67,2655.48 1966.18,2656.83 1965.50,2657.41 1964.63,2657.22 1963.57,2656.25"/>
    </edge>
    <edge id=":262573149_0" function="internal">
        <lane id=":262573149_0_0" index="0" disallow="tram rail_urban rail rail_electric ship automated" speed="25.00" length="5.27" shape="1343.70,626.78 1343.08,625.41 1342.21,624.56 1341.09,624.23 1339.72,624.42"/>
    </edge>
    <edge id=":262573149_1" function="internal">
        <lane id=":262573149_1_0" index="0" disallow="tram rail_urban rail rail_electric ship automated" speed="27.78" length="9.72" shape="1343.70,626.78 1340.86,617.49"/>
        <lane id=":262573149_1_1" index="1" disallow="tram rail_urban rail rail_electric ship automated" speed="27.78" length="9.72" shape="1346.76,625.84 1343.92,616.55"/>
    </edge>
    <edge id=":262573149_3" function="internal">
        <lane id=":262573149_3_0" index="0" disallow="tram rail_urban rail rail_electric ship automated" speed="25.00" length="4.42" shape="1346.76,625.84 1346.50,622.90 1347.13,621.58"/>
    </edge>
    <edge id=":262573149_4" function="internal">
        <lane id=":262573149_4_0" index="0" disallow="tram rail_urban rail rail_electric ship automated" speed="27.78" length="2.34" shape="1346.76,625.84 1347.17,624.46 1347.82,623.85"/>
    </edge>
    <edge id=":262573149_18" function="internal">
        <lane id=":262573149_18_0" index="0" speed="25.00" length="8.73" shape="1347.13,621.58 1347.66,620.46 1350.24,618.51 1354.24,617.06"/>
    </edge>
    <edge id=":262573149_19" function="internal">
        <lane id=":262573149_19_0" index="0" speed="27.78" length="2.34" shape="1347.82,623.85 1348.71,624.00 1349.82,624.91"/>
    </edge>
    <edge id=":262573149_5" function="internal">
        <lane id=":262573149_5_0" index="0" disallow="tram rail_urban rail rail_electric ship automated" speed="25.00" length="5.06" shape="1355.03,620.16 1353.74,620.69 1352.96,621.51 1352.67,622.60 1352.88,623.98"/>
    </edge>
    <edge id=":262573149_6" function="internal">
        <lane id=":262573149_6_0" index="0" disallow="tram rail_urban rail rail_electric ship automated" speed="22.22" length="15.89" shape="1355.03,620.16 1339.72,624.42"/>
    </edge>
    <edge id=":262573149_7" function="internal">
        <lane id=":262573149_7_0" index="0" disallow="tram rail_urban rail rail_electric ship automated" speed="25.00" length="7.18" shape="1355.03,620.16 1350.86,620.82 1347.93,620.48"/>
    </edge>
    <edge id=":262573149_8" function="internal">
        <lane id=":262573149_8_0" index="0" disallow="tram rail_urban rail rail_electric ship automated" speed="22.22" length="2.34" shape="1355.03,620.16 1353.67,619.68 1353.09,619.00"/>
    </edge>
    <edge id=":262573149_20" function="internal">
        <lane id=":262573149_20_0" index="0" speed="25.00" length="5.86" shape="1347.93,620.48 1347.61,620.44 1345.30,619.01 1343.92,616.55"/>
    </edge>
    <edge id=":262573149_21" function="internal">
        <lane id=":262573149_21_0" index="0" speed="22.22" length="2.34" shape="1353.09,619.00 1353.28,618.13 1354.24,617.06"/>
    </edge>
    <edge id=":262573149_9" function="internal">
        <lane id=":262573149_9_0" index="0" disallow="tram rail_urban rail rail_electric ship automated" speed="25.00" length="5.46" shape="1350.03,614.67 1350.67,616.02 1351.58,616.87 1352.77,617.22 1354.24,617.06"/>
    </edge>
    <edge id=":262573149_10" function="internal">
        <lane id=":262573149_10_0" index="0" disallow="tram rail_urban rail rail_electric ship automated" speed="27.78" length="9.73" shape="1350.03,614.67 1352.88,623.98"/>
        <lane id=":262573149_10_1" index="1" disallow="tram rail_urban rail rail_electric ship automated" speed="27.78" length="9.73" shape="1346.97,615.61 1349.82,624.91"/>
    </edge>
    <edge id=":262573149_12" function="internal">
        <lane id=":262573149_12_0" index="0" disallow="tram rail_urban rail rail_electric ship automated" speed="25.00" length="4.34" shape="1346.97,615.61 1347.22,618.43 1346.58,619.79"/>
    </edge>
    <edge id=":262573149_13" function="internal">
        <lane id=":262573149_13_0" index="0" disallow="tram rail_urban rail rail_electric ship automated" speed="27.78" length="2.34" shape="1346.97,615.61 1346.56,616.99 1345.91,617.61"/>
    </edge>
    <edge id=":262573149_22" function="internal">
        <lane id=":262573149_22_0" index="0" speed="25.00" length="8.54" shape="1346.58,619.79 1346.09,620.84 1343.59,622.84 1339.72,624.42"/>
    </edge>
    <edge id=":262573149_23" function="internal">
        <lane id=":262573149_23_0" index="0" speed="27.78" length="2.34" shape="1345.91,617.61 1345.03,617.46 1343.92,616.55"/>
    </edge>
    <edge id=":262573149_14" function="internal">
        <lane id=":262573149_14_0" index="0" disallow="tram rail_urban rail rail_electric ship automated" speed="25.00" length="5.00" shape="1338.80,621.36 1340.04,620.78 1340.80,619.94 1341.07,618.84 1340.86,617.49"/>
    </edge>
    <edge id=":262573149_15" function="internal">
        <lane id=":262573149_15_0" index="0" disallow="tram rail_urban rail rail_electric ship automated" speed="22.22" length="16.04" shape="1338.80,621.36 1354.24,617.06"/>
    </edge>
    <edge id=":262573149_16" function="internal">
        <lane id=":262573149_16_0" index="0" disallow="tram rail_urban rail rail_electric ship automated" speed="25.00" length="7.55" shape="1338.80,621.36 1342.90,620.55 1346.10,620.87 1346.23,620.95"/>
    </edge>
    <edge id=":262573149_17" function="internal">
        <lane id=":262573149_17_0" index="0" disallow="tram rail_urban rail rail_electric ship automated" speed="22.22" length="2.34" shape="1338.80,621.36 1340.18,621.78 1340.79,622.43"/>
    </edge>
    <edge id=":262573149_24" function="internal">
        <lane id=":262573149_24_0" index="0" speed="25.00" length="5.53" shape="1346.23,620.95 1348.41,622.32 1349.82,624.91"/>
    </edge>
    <edge id=":262573149_25" function="internal">
        <lane id=":262573149_25_0" index="0" speed="22.22" length="2.34" shape="1340.79,622.43 1340.64,623.31 1339.72,624.42"/>
    </edge>
    <edge id=":3993684186_0" function="internal">
        <lane id=":3993684186_0_0" index="0" disallow="tram rail_urban rail rail_electric ship automated" speed="22.22" length="4.67" shape="0.40,1030.93 -0.96,1030.45 -1.55,1029.78 -1.36,1028.90 -0.40,1027.83"/>
    </edge>
    <edge id=":404731154_0" function="internal">
        <lane id=":404731154_0_0" index="0" disallow="tram rail_urban rail rail_electric ship automated" speed="27.78" length="0.25" shape="1753.05,1979.10 1752.99,1978.88"/>
        <lane id=":404731154_0_1" index="1" disallow="tram rail_urban rail rail_electric ship automated" speed="27.78" length="0.25" shape="1756.11,1978.17 1756.04,1977.92"/>
    </edge>
    <edge id=":404731154_2" function="internal">
        <lane id=":404731154_2_0" index="0" disallow="tram rail_urban rail rail_electric ship automated" speed="27.78" length="2.34" shape="1756.11,1978.17 1756.53,1976.79 1757.18,1976.18"/>
    </edge>
    <edge id=":404731154_6" function="internal">
        <lane id=":404731154_6_0" index="0" speed="27.78" length="2.34" shape="1757.18,1976.18 1758.07,1976.33 1759.18,1977.25"/>
    </edge>
    <edge id=":404731154_3" function="internal">
        <lane id=":404731154_3_0" index="0" disallow="tram rail_urban rail rail_electric ship automated" speed="27.78" length="0.33" shape="1762.14,1975.99 1762.24,1976.33"/>
        <lane id=":404731154_3_1" index="1" disallow="tram rail_urban rail rail_electric ship automated" speed="27.78" length="0.33" shape="1759.09,1976.95 1759.18,1977.25"/>
    </edge>
    <edge id=":404731154_5" function="internal">
        <lane id=":404731154_5_0" index="0" disallow="tram rail_urban rail rail_electric ship automated" speed="27.78" length="2.34" shape="1759.09,1976.95 1758.69,1978.34 1758.04,1978.96"/>
    </edge>
    <edge id=":404731154_7" function="internal">
        <lane id=":404731154_7_0" index="0" speed="27.78" length="2.34" shape="1758.04,1978.96 1757.16,1978.82 1756.04,1977.92"/>
    </edge>
    <edge id=":408455094_0" function="internal">
        <lane id=":408455094_0_0" index="0" disallow="tram rail_urban rail rail_electric ship automated" speed="22.22" length="0.28" shape="2024.39,417.17 2024.12,417.25"/>
    </edge>
    <edge id=":408455094_1" function="internal">
        <lane id=":408455094_1_0" index="0" disallow="tram rail_urban rail rail_electric ship automated" speed="22.22" length="2.34" shape="2024.39,417.17 2023.01,416.74 2022.40,416.08"/>
    </edge>
    <edge id=":408455094_4" function="internal">
        <lane id=":408455094_4_0" index="0" speed="22.22" length="2.34" shape="2022.40,416.08 2022.56,415.20 2023.49,414.10"/>
    </edge>
    <edge id=":408455094_2" function="internal">
        <lane id=":408455094_2_0" index="0" disallow="tram rail_urban rail rail_electric ship automated" speed="22.22" length="0.31" shape="2023.19,414.19 2023.49,414.10"/>
    </edge>
    <edge id=":408455094_3" function="internal">
        <lane id=":408455094_3_0" index="0" disallow="tram rail_urban rail rail_electric ship automated" speed="22.22" length="2.34" shape="2023.19,414.19 2024.57,414.60 2025.19,415.25"/>
    </edge>
    <edge id=":408455094_5" function="internal">
        <lane id=":408455094_5_0" index="0" speed="22.22" length="2.34" shape="2025.19,415.25 2025.04,416.14 2024.12,417.25"/>
    </edge>
    <edge id=":408560470_0" function="internal">
        <lane id=":408560470_0_0" index="0" disallow="tram rail_urban rail rail_electric ship automated" speed="22.22" length="4.67" shape="3394.70,-1.48 3396.12,-1.19 3396.79,-0.60 3396.72,0.29 3395.90,1.48"/>
    </edge>
    <edge id=":408560490_0" function="internal">
        <lane id=":408560490_0_0" index="0" disallow="tram rail_urban rail rail_electric ship automated" speed="22.22" length="0.10" shape="1377.80,614.36 1377.73,614.38"/>
    </edge>
    <edge id=":408560490_1" function="internal">
        <lane id=":408560490_1_0" index="0" disallow="tram rail_urban rail rail_electric ship automated" speed="22.22" length="2.34" shape="1377.80,614.36 1376.42,613.94 1375.80,613.29"/>
    </edge>
    <edge id=":408560490_4" function="internal">
        <lane id=":408560490_4_0" index="0" speed="22.22" length="2.34" shape="1375.80,613.29 1375.95,612.41 1376.87,611.29"/>
    </edge>
    <edge id=":408560490_2" function="internal">
        <lane id=":408560490_2_0" index="0" disallow="tram rail_urban rail rail_electric ship automated" speed="22.22" length="0.10" shape="1376.94,611.27 1376.87,611.29"/>
    </edge>
    <edge id=":408560490_3" function="internal">
        <lane id=":408560490_3_0" index="0" disallow="tram rail_urban rail rail_electric ship automated" speed="22.22" length="2.34" shape="1376.94,611.27 1378.30,611.75 1378.89,612.43"/>
    </edge>
    <edge id=":408560490_5" function="internal">
        <lane id=":408560490_5_0" index="0" speed="22.22" length="2.34" shape="1378.89,612.43 1378.70,613.30 1377.73,614.38"/>
    </edge>
    <edge id=":410163861_0" function="internal">
        <lane id=":410163861_0_0" index="0" disallow="tram rail_urban rail rail_electric ship automated" speed="27.78" length="4.67" shape="1167.16,52.66 1167.43,51.24 1168.02,50.56 1168.91,50.62 1170.11,51.41"/>
    </edge>

    <edge id="-142497502#0" from="1559454426" to="206231053" priority="7" type="highway.secondary">
        <lane id="-142497502#0_0" index="0" disallow="tram rail_urban rail rail_electric ship automated" speed="27.78" length="15.54" shape="1966.04,2639.62 1969.78,2654.71"/>
        <lane id="-142497502#0_1" index="1" disallow="tram rail_urban rail rail_electric ship automated" speed="27.78" length="15.54" shape="1962.93,2640.39 1966.67,2655.48"/>
    </edge>
    <edge id="-142497502#1" from="404731154" to="1559454426" priority="7" type="highway.secondary" shape="1757.60,1977.57 1792.28,2092.54 1805.11,2135.08 1858.40,2311.74 1901.18,2453.24 1916.17,2500.66 1952.19,2610.92 1961.34,2640.60">
        <lane id="-142497502#1_0" index="0" disallow="tram rail_urban rail rail_electric ship automated" speed="27.78" length="693.31" shape="1762.24,1976.33 1796.88,2091.16 1809.71,2133.69 1863.00,2310.36 1905.77,2451.83 1920.74,2499.19 1956.77,2609.47 1965.87,2639.02"/>
        <lane id="-142497502#1_1" index="1" disallow="tram rail_urban rail rail_electric ship automated" speed="27.78" length="693.31" shape="1759.18,1977.25 1793.82,2092.08 1806.64,2134.61 1859.93,2311.28 1902.71,2452.77 1917.69,2500.17 1953.72,2610.43 1962.81,2639.96"/>
    </edge>
    <edge id="-142497502#2" from="262573149" to="404731154" priority="7" type="highway.secondary" shape="1346.83,620.60 1552.97,1297.46 1619.36,1536.06 1674.61,1715.67 1757.60,1977.57">
        <lane id="-142497502#2_0" index="0" disallow="tram rail_urban rail rail_electric ship automated" speed="27.78" length="1412.70" shape="1352.88,623.98 1557.58,1296.12 1623.97,1534.71 1679.20,1714.24 1762.14,1975.99"/>
        <lane id="-142497502#2_1" index="1" disallow="tram rail_urban rail rail_electric ship automated" speed="27.78" length="1412.70" shape="1349.82,624.91 1554.50,1297.01 1620.90,1535.61 1676.14,1715.19 1759.09,1976.95"/>
    </edge>
    <edge id="-142497502#3" from="410163861" to="262573149" priority="7" type="highway.secondary" shape="1168.64,52.04 1176.70,71.14 1190.10,112.47 1244.30,286.93 1346.83,620.60">
        <lane id="-142497502#3_0" index="0" disallow="tram rail_urban rail rail_electric ship automated" speed="27.78" length="591.53" shape="1173.06,50.17 1181.20,69.46 1194.67,111.02 1248.89,285.51 1350.03,614.67"/>
        <lane id="-142497502#3_1" index="1" disallow="tram rail_urban rail rail_electric ship automated" speed="27.78" length="591.53" shape="1170.11,51.41 1178.20,70.58 1191.62,111.99 1245.83,286.46 1346.97,615.61"/>
    </edge>
    <edge id="-34894793#0" from="408455094" to="408560490" priority="6" type="highway.tertiary" shape="2023.80,415.68 1809.99,480.75 1666.92,524.59 1377.34,612.82">
        <lane id="-34894793#0_0" index="0" disallow="tram rail_urban rail rail_electric ship automated" speed="22.22" length="675.71" shape="2024.12,417.25 1810.45,482.28 1667.38,526.12 1377.80,614.36"/>
    </edge>
    <edge id="-34894793#1" from="408560470" to="408455094" priority="6" type="highway.tertiary" shape="3395.30,0.00 3390.93,1.77 3378.73,6.72 3365.57,11.26 3341.59,18.85 2700.50,211.92 2160.16,375.74 2023.80,415.68">
        <lane id="-34894793#1_0" index="0" disallow="tram rail_urban rail rail_electric ship automated" speed="22.22" length="1433.22" shape="3395.90,1.48 3391.53,3.26 3379.30,8.21 3366.07,12.78 3342.06,20.38 2700.96,213.45 2160.62,377.27 2024.39,417.17"/>
    </edge>
    <edge id="-396555616#0" from="262573149" to="408560490" priority="6" type="highway.tertiary">
        <lane id="-396555616#0_0" index="0" disallow="tram rail_urban rail rail_electric ship automated" speed="22.22" length="23.42" shape="1354.24,617.06 1376.94,611.27"/>
    </edge>
    <edge id="-396555616#1" from="3993684186" to="262573149" priority="6" type="highway.tertiary" shape="0.00,1029.38 9.69,1026.89 147.49,984.91 235.79,958.01 293.39,940.46 665.23,826.87 1346.83,620.60">
        <lane id="-396555616#1_0" index="0" disallow="tram rail_urban rail rail_electric ship automated" speed="22.22" length="1399.53" shape="-0.40,1027.83 9.26,1025.35 147.02,983.38 235.32,956.48 292.92,938.93 664.76,825.34 1338.80,621.36"/>
    </edge>
    <edge id="142497502#0" from="206231053" to="1559454426" priority="7" type="highway.secondary">
        <lane id="142497502#0_0" index="0" disallow="tram rail_urban rail rail_electric ship automated" speed="27.78" length="15.54" shape="1960.46,2657.02 1956.72,2641.93"/>
        <lane id="142497502#0_1" index="1" disallow="tram rail_urban rail rail_electric ship automated" speed="27.78" length="15.54" shape="1963.57,2656.25 1959.83,2641.16"/>
    </edge>
    <edge id="142497502#1" from="1559454426" to="404731154" priority="7" type="highway.secondary" shape="1961.34,2640.60 1952.19,2610.92 1916.17,2500.66 1901.18,2453.24 1858.40,2311.74 1805.11,2135.08 1792.28,2092.54 1757.60,1977.57">
        <lane id="142497502#1_0" index="0" disallow="tram rail_urban rail rail_electric ship automated" speed="27.78" length="693.35" shape="1956.70,2641.85 1947.62,2612.37 1911.60,2502.13 1896.59,2454.66 1853.80,2313.13 1800.52,2136.46 1787.69,2093.93 1753.05,1979.10"/>
        <lane id="142497502#1_1" index="1" disallow="tram rail_urban rail rail_electric ship automated" speed="27.78" length="693.35" shape="1959.76,2640.91 1950.67,2611.40 1914.65,2501.15 1899.65,2453.72 1856.87,2312.21 1803.58,2135.54 1790.75,2093.00 1756.11,1978.17"/>
    </edge>
    <edge id="142497502#2" from="404731154" to="262573149" priority="7" type="highway.secondary" shape="1757.60,1977.57 1674.61,1715.67 1619.36,1536.06 1552.97,1297.46 1346.83,620.60">
        <lane id="142497502#2_0" index="0" disallow="tram rail_urban rail rail_electric ship automated" speed="27.78" length="1412.77" shape="1752.99,1978.88 1670.03,1717.10 1614.76,1537.41 1548.36,1298.80 1343.70,626.78"/>
        <lane id="142497502#2_1" index="1" disallow="tram rail_urban rail rail_electric ship automated" speed="27.78" length="1412.77" shape="1756.04,1977.92 1673.09,1716.14 1617.83,1536.51 1551.43,1297.91 1346.76,625.84"/>
    </edge>
    <edge id="142497502#3" from="262573149" to="410163861" priority="7" type="highway.secondary" shape="1346.83,620.60 1244.30,286.93 1190.10,112.47 1176.70,71.14 1168.64,52.04">
        <lane id="142497502#3_0" index="0" disallow="tram rail_urban rail rail_electric ship automated" speed="27.78" length="590.88" shape="1340.86,617.49 1239.72,288.35 1185.52,113.92 1172.20,72.82 1164.21,53.90"/>
        <lane id="142497502#3_1" index="1" disallow="tram rail_urban rail rail_electric ship automated" speed="27.78" length="590.88" shape="1343.92,616.55 1242.78,287.40 1188.57,112.95 1175.20,71.70 1167.16,52.66"/>
    </edge>
    <edge id="34894793#0" from="408560490" to="408455094" priority="6" type="highway.tertiary" shape="1377.34,612.82 1666.92,524.59 1809.99,480.75 2023.80,415.68">
        <lane id="34894793#0_0" index="0" disallow="tram rail_urban rail rail_electric ship automated" speed="22.22" length="675.71" shape="1376.87,611.29 1666.45,523.06 1809.52,479.22 2023.19,414.19"/>
    </edge>
    <edge id="34894793#1" from="408455094" to="408560470" priority="6" type="highway.tertiary" shape="2023.80,415.68 2160.16,375.74 2700.50,211.92 3341.59,18.85 3365.57,11.26 3378.73,6.72 3390.93,1.77 3395.30,0.00">
        <lane id="34894793#1_0" index="0" disallow="tram rail_urban rail rail_electric ship automated" speed="22.22" length="1432.90" shape="2023.49,414.10 2159.71,374.21 2700.04,210.39 3341.12,17.32 3365.06,9.74 3378.17,5.22 3390.33,0.29 3394.70,-1.48"/>
    </edge>
    <edge id="396555616#0" from="408560490" to="262573149" priority="6" type="highway.tertiary">
        <lane id="396555616#0_0" index="0" disallow="tram rail_urban rail rail_electric ship automated" speed="22.22" length="23.42" shape="1377.73,614.38 1355.03,620.16"/>
    </edge>
    <edge id="396555616#1" from="262573149" to="3993684186" priority="6" type="highway.tertiary" shape="1346.83,620.60 665.23,826.87 293.39,940.46 235.79,958.01 147.49,984.91 9.69,1026.89 0.00,1029.38">
        <lane id="396555616#1_0" index="0" disallow="tram rail_urban rail rail_electric ship automated" speed="22.22" length="1399.67" shape="1339.72,624.42 665.69,828.40 293.86,941.99 236.25,959.54 147.96,986.44 10.12,1028.43 0.40,1030.93"/>
    </edge>

    <tlLogic id="1559454426" type="static" programID="0" offset="0">
        <phase duration="79" state="GGgGGg"/>
        <phase duration="6"  state="yyyyyy"/>
        <phase duration="5"  state="rrrrrr"/>
    </tlLogic>
    <tlLogic id="206231053" type="static" programID="0" offset="0">
        <phase duration="79" state="G"/>
        <phase duration="6"  state="y"/>
        <phase duration="5"  state="r"/>
    </tlLogic>
    <tlLogic id="262573149" type="static" programID="0" offset="0">
        <phase duration="39" state="GGGggrrrrGGGggrrrr"/>
        <phase duration="6"  state="yyyyyrrrryyyyyrrrr"/>
        <phase duration="39" state="rrrrrGGggrrrrrGGgg"/>
        <phase duration="6"  state="rrrrryyyyrrrrryyyy"/>
    </tlLogic>
    <tlLogic id="404731154" type="static" programID="0" offset="0">
        <phase duration="79" state="GGgGGg"/>
        <phase duration="6"  state="yyyyyy"/>
        <phase duration="5"  state="rrrrrr"/>
    </tlLogic>
    <tlLogic id="408455094" type="static" programID="0" offset="0">
        <phase duration="80" state="GgGg"/>
        <phase duration="5"  state="yyyy"/>
        <phase duration="5"  state="rrrr"/>
    </tlLogic>

    <junction id="1559454426" type="traffic_light" x="1961.34" y="2640.60" incLanes="142497502#0_0 142497502#0_1 -142497502#1_0 -142497502#1_1" intLanes=":1559454426_0_0 :1559454426_0_1 :1559454426_6_0 :1559454426_3_0 :1559454426_3_1 :1559454426_7_0" shape="1955.17,2642.32 1967.59,2639.24 1967.40,2638.55">
        <request index="0" response="000000" foes="100000" cont="0"/>
        <request index="1" response="000000" foes="100000" cont="0"/>
        <request index="2" response="011000" foes="011000" cont="1"/>
        <request index="3" response="000000" foes="000100" cont="0"/>
        <request index="4" response="000000" foes="000100" cont="0"/>
        <request index="5" response="000011" foes="000011" cont="1"/>
    </junction>
    <junction id="206231053" type="traffic_light" x="1965.12" y="2655.86" incLanes="-142497502#0_0 -142497502#0_1" intLanes=":206231053_0_0" shape="1965.12,2655.86 1971.33,2654.32 1965.12,2655.86">
        <request index="0" response="0" foes="0" cont="0"/>
    </junction>
    <junction id="262573149" type="traffic_light" x="1346.83" y="620.60" incLanes="142497502#2_0 142497502#2_1 396555616#0_0 -142497502#3_0 -142497502#3_1 -396555616#1_0" intLanes=":262573149_0_0 :262573149_1_0 :262573149_1_1 :262573149_18_0 :262573149_19_0 :262573149_5_0 :262573149_6_0 :262573149_20_0 :262573149_21_0 :262573149_9_0 :262573149_10_0 :262573149_10_1 :262573149_22_0 :262573149_23_0 :262573149_14_0 :262573149_15_0 :262573149_24_0 :262573149_25_0" shape="1342.17,627.24 1354.41,623.51 1355.43,621.71 1353.85,615.51 1351.56,614.20 1339.33,617.96 1338.33,619.83 1340.19,625.95">
        <request index="0"  response="000000000000000000" foes="100001000001000000" cont="0"/>
        <request index="1"  response="010000000010000000" foes="011111000011000000" cont="0"/>
        <request index="2"  response="010000000010000000" foes="011111000011000000" cont="0"/>