<?xml version="1.0" encoding="UTF-8"?>

<!-- generated on Wed Oct 28 11:15:14 2020 by Eclipse SUMO netconvert Version 1.7.0
<configuration xmlns:xsi="http://www.w3.org/2001/XMLSchema-instance" xsi:noNamespaceSchemaLocation="http://sumo.dlr.de/xsd/netconvertConfiguration.xsd">

    <input>
        <node-files value="trento.nod.xml"/>
        <edge-files value="trento.edg.xml"/>
        <connection-files value="trento.con.xml"/>
        <tllogic-files value="trento.tll.xml"/>
        <type-files value="trento.typ.xml"/>
    </input>

    <output>
        <output-file value="utput-file=trento.net.xml"/>
    </output>

    <report>
        <aggregate-warnings value="5"/>
    </report>

</configuration>
-->

<net version="1.6" junctionCornerDetail="5" limitTurnSpeed="5.50" xmlns:xsi="http://www.w3.org/2001/XMLSchema-instance" xsi:noNamespaceSchemaLocation="http://sumo.dlr.de/xsd/net_file.xsd">

    <location netOffset="-663088.49,-5102615.60" convBoundary="0.00,0.00,1440.65,4005.89" origBoundary="11.109789,46.057512,11.127587,46.093694" projParameter="+proj=utm +zone=32 +ellps=WGS84 +datum=WGS84 +units=m +no_defs"/>

    <type id="highway.bridleway" priority="1" numLanes="1" speed="2.78" allow="pedestrian" oneway="1" width="2.00"/>
    <type id="highway.bus_guideway" priority="1" numLanes="1" speed="27.78" allow="bus" oneway="1"/>
    <type id="highway.cycleway" priority="1" numLanes="1" speed="8.33" allow="bicycle" oneway="0" width="1.00"/>
    <type id="highway.footway" priority="1" numLanes="1" speed="2.78" allow="pedestrian" oneway="1" width="2.00"/>
    <type id="highway.ford" priority="1" numLanes="1" speed="2.78" allow="army" oneway="0"/>
    <type id="highway.living_street" priority="3" numLanes="1" speed="2.78" disallow="tram rail_urban rail rail_electric ship" oneway="0"/>
    <type id="highway.motorway" priority="13" numLanes="2" speed="44.44" allow="private emergency authority army vip passenger hov taxi bus coach delivery truck trailer motorcycle evehicle custom1 custom2" oneway="1"/>
    <type id="highway.motorway_link" priority="12" numLanes="1" speed="22.22" allow="private emergency authority army vip passenger hov taxi bus coach delivery truck trailer motorcycle evehicle custom1 custom2" oneway="1"/>
    <type id="highway.path" priority="1" numLanes="1" speed="2.78" allow="pedestrian bicycle" oneway="1" width="2.00"/>
    <type id="highway.pedestrian" priority="1" numLanes="1" speed="2.78" allow="pedestrian" oneway="1" width="2.00"/>
    <type id="highway.primary" priority="9" numLanes="2" speed="27.78" disallow="tram rail_urban rail rail_electric ship" oneway="0"/>
    <type id="highway.primary_link" priority="8" numLanes="1" speed="22.22" disallow="tram rail_urban rail rail_electric ship" oneway="0"/>
    <type id="highway.raceway" priority="14" numLanes="2" speed="83.33" allow="vip" oneway="0"/>
    <type id="highway.residential" priority="4" numLanes="1" speed="13.89" disallow="tram rail_urban rail rail_electric ship" oneway="0"/>
    <type id="highway.secondary" priority="7" numLanes="2" speed="27.78" disallow="tram rail_urban rail rail_electric ship" oneway="0"/>
    <type id="highway.secondary_link" priority="6" numLanes="1" speed="22.22" disallow="tram rail_urban rail rail_electric ship" oneway="0"/>
    <type id="highway.service" priority="2" numLanes="1" speed="5.56" allow="pedestrian delivery bicycle" oneway="0"/>
    <type id="highway.services" priority="1" numLanes="1" speed="8.33" disallow="tram rail_urban rail rail_electric ship" oneway="0"/>
    <type id="highway.stairs" priority="1" numLanes="1" speed="1.39" allow="pedestrian" oneway="1" width="2.00"/>
    <type id="highway.step" priority="1" numLanes="1" speed="1.39" allow="pedestrian" oneway="1" width="2.00"/>
    <type id="highway.steps" priority="1" numLanes="1" speed="1.39" allow="pedestrian" oneway="1" width="2.00"/>
    <type id="highway.tertiary" priority="6" numLanes="1" speed="22.22" disallow="tram rail_urban rail rail_electric ship" oneway="0"/>
    <type id="highway.tertiary_link" priority="5" numLanes="1" speed="22.22" disallow="tram rail_urban rail rail_electric ship" oneway="0"/>
    <type id="highway.track" priority="1" numLanes="1" speed="5.56" disallow="tram rail_urban rail rail_electric ship" oneway="0"/>
    <type id="highway.trunk" priority="11" numLanes="2" speed="27.78" disallow="pedestrian bicycle tram rail_urban rail rail_electric rail_fast ship" oneway="0"/>
    <type id="highway.trunk_link" priority="10" numLanes="1" speed="22.22" disallow="pedestrian bicycle tram rail_urban rail rail_electric rail_fast ship" oneway="0"/>
    <type id="highway.unclassified" priority="5" numLanes="1" speed="13.89" disallow="tram rail_urban rail rail_electric ship" oneway="0"/>
    <type id="highway.unsurfaced" priority="1" numLanes="1" speed="8.33" disallow="tram rail_urban rail rail_electric ship" oneway="0"/>
    <type id="railway.light_rail" priority="15" numLanes="1" speed="27.78" allow="rail_urban" oneway="1"/>
    <type id="railway.preserved" priority="15" numLanes="1" speed="27.78" allow="rail" oneway="1"/>
    <type id="railway.rail" priority="15" numLanes="1" speed="83.33" allow="rail rail_electric" oneway="1"/>
    <type id="railway.subway" priority="15" numLanes="1" speed="27.78" allow="rail_urban" oneway="1"/>
    <type id="railway.tram" priority="15" numLanes="1" speed="13.89" allow="tram" oneway="1"/>

    <edge id=":1000099468_0" function="internal">
        <lane id=":1000099468_0_0" index="0" allow="pedestrian delivery bicycle" speed="3.65" length="4.67" shape="1053.11,1515.09 1051.81,1515.72 1050.92,1515.66 1050.43,1514.91 1050.35,1513.47"/>
    </edge>
    <edge id=":1000099475_0" function="internal">
        <lane id=":1000099475_0_0" index="0" disallow="tram rail_urban rail rail_electric ship" speed="8.17" length="7.21" shape="934.42,1789.73 933.29,1789.07 931.18,1788.47 928.97,1788.00 927.55,1787.73"/>
    </edge>
    <edge id=":1000099475_1" function="internal">
        <lane id=":1000099475_1_0" index="0" disallow="tram rail_urban rail rail_electric ship" speed="9.53" length="9.98" shape="937.27,1788.27 936.30,1787.27 934.47,1786.32 931.76,1785.43 928.18,1784.59"/>
    </edge>
    <edge id=":1000099490_0" function="internal">
        <lane id=":1000099490_0_0" index="0" disallow="tram rail_urban rail rail_electric ship" speed="13.89" length="3.36" shape="1192.29,1649.59 1190.64,1646.66"/>
    </edge>
    <edge id=":1000099503_0" function="internal">
        <lane id=":1000099503_0_0" index="0" allow="bicycle" speed="3.85" length="3.22" shape="1019.80,1746.27 1019.34,1745.52 1018.75,1745.10 1018.02,1745.01 1017.17,1745.25"/>
    </edge>
    <edge id=":1000099503_1" function="internal">
        <lane id=":1000099503_1_0" index="0" allow="bicycle" speed="8.33" length="11.13" width="1.00" shape="1019.80,1746.27 1015.41,1736.05"/>
    </edge>
    <edge id=":1000099503_2" function="internal">
        <lane id=":1000099503_2_0" index="0" allow="bicycle" speed="2.04" length="1.46" width="1.00" shape="1019.80,1746.27 1019.88,1745.83 1020.06,1745.62 1020.34,1745.63 1020.72,1745.88"/>
    </edge>
    <edge id=":1000099503_3" function="internal">
        <lane id=":1000099503_3_0" index="0" allow="bicycle" speed="3.88" length="2.52" width="1.00" shape="1020.76,1743.65 1020.31,1744.04 1020.25,1744.57 1020.43,1745.20 1020.72,1745.88"/>
    </edge>
    <edge id=":1000099503_4" function="internal">
        <lane id=":1000099503_4_0" index="0" disallow="tram rail_urban rail rail_electric ship" speed="22.22" length="3.93" shape="1020.32,1742.65 1016.73,1744.24"/>
        <lane id=":1000099503_4_1" index="1" disallow="tram rail_urban rail rail_electric ship" speed="22.22" length="3.93" shape="1019.02,1739.72 1015.43,1741.32"/>
        <lane id=":1000099503_4_2" index="2" disallow="tram rail_urban rail rail_electric ship" speed="22.22" length="3.93" shape="1017.73,1736.80 1014.13,1738.39"/>
    </edge>
    <edge id=":1000099503_7" function="internal">
        <lane id=":1000099503_7_0" index="0" allow="bicycle" speed="3.68" length="2.20" width="1.00" shape="1017.28,1735.79 1016.67,1736.11 1016.16,1736.39 1015.73,1736.43 1015.41,1736.05"/>
    </edge>
    <edge id=":1000099503_8" function="internal">
        <lane id=":1000099503_8_0" index="0" allow="bicycle" speed="8.33" length="11.13" width="1.00" shape="1016.33,1735.66 1020.72,1745.88"/>
    </edge>
    <edge id=":1000099503_9" function="internal">
        <lane id=":1000099503_9_0" index="0" allow="bicycle" speed="4.62" length="4.69" shape="1016.33,1735.66 1016.62,1736.82 1016.42,1737.84 1015.74,1738.69 1014.57,1739.40"/>
    </edge>
    <edge id=":1000099503_10" function="internal">
        <lane id=":1000099503_10_0" index="0" allow="bicycle" speed="2.04" length="1.46" width="1.00" shape="1016.33,1735.66 1016.24,1736.10 1016.06,1736.31 1015.78,1736.30 1015.41,1736.05"/>
    </edge>
    <edge id=":1000099544_0" function="internal">
        <lane id=":1000099544_0_0" index="0" allow="pedestrian delivery bicycle" speed="5.56" length="5.01" shape="993.43,1474.96 988.55,1473.82"/>
    </edge>
    <edge id=":1000099544_1" function="internal">
        <lane id=":1000099544_1_0" index="0" allow="pedestrian delivery bicycle" speed="3.65" length="2.34" shape="993.43,1474.96 992.44,1473.91 992.23,1473.04"/>
    </edge>
    <edge id=":1000099544_4" function="internal">
        <lane id=":1000099544_4_0" index="0" allow="pedestrian delivery bicycle" speed="3.65" length="2.34" shape="992.23,1473.04 992.81,1472.35 994.16,1471.85"/>
    </edge>
    <edge id=":1000099544_2" function="internal">
        <lane id=":1000099544_2_0" index="0" allow="pedestrian delivery bicycle" speed="5.56" length="5.00" shape="989.29,1470.70 994.16,1471.85"/>
    </edge>
    <edge id=":1000099544_3" function="internal">
        <lane id=":1000099544_3_0" index="0" allow="pedestrian delivery bicycle" speed="3.65" length="2.34" shape="989.29,1470.70 990.27,1471.76 990.48,1472.63"/>
    </edge>
    <edge id=":1000099544_5" function="internal">
        <lane id=":1000099544_5_0" index="0" allow="pedestrian delivery bicycle" speed="3.65" length="2.34" shape="990.48,1472.63 989.91,1473.32 988.55,1473.82"/>
    </edge>
    <edge id=":1000099553_0" function="internal">
        <lane id=":1000099553_0_0" index="0" allow="pedestrian bicycle" speed="2.78" length="4.80" width="2.00" shape="971.27,1630.87 970.70,1629.57 970.21,1628.72 969.55,1628.00 968.47,1627.08"/>
    </edge>
    <edge id=":1000099576_0" function="internal">
        <lane id=":1000099576_0_0" index="0" allow="pedestrian bicycle" speed="4.17" length="4.56" shape="941.53,1786.98 942.16,1788.20 942.95,1788.93 943.90,1789.17 945.00,1788.92"/>
    </edge>
    <edge id=":1000099576_1" function="internal">
        <lane id=":1000099576_1_0" index="0" allow="pedestrian bicycle" speed="2.78" length="2.33" width="2.00" shape="941.53,1786.98 941.86,1788.35 941.76,1789.26"/>
    </edge>
    <edge id=":1000099576_4" function="internal">
        <lane id=":1000099576_4_0" index="0" allow="pedestrian bicycle" speed="2.78" length="2.69" width="2.00" shape="941.76,1789.26 941.74,1789.52 941.17,1790.50 940.14,1791.29"/>
    </edge>
    <edge id=":1000099576_2" function="internal">
        <lane id=":1000099576_2_0" index="0" allow="pedestrian bicycle" speed="3.56" length="3.23" width="2.00" shape="941.84,1792.23 942.03,1791.30 941.81,1790.84 941.19,1790.83 940.14,1791.29"/>
    </edge>
    <edge id=":1000099576_3" function="internal">
        <lane id=":1000099576_3_0" index="0" allow="pedestrian delivery bicycle" speed="5.56" length="1.96" shape="941.84,1792.23 942.34,1791.15 942.80,1790.54"/>
    </edge>
    <edge id=":1000099576_5" function="internal">
        <lane id=":1000099576_5_0" index="0" allow="pedestrian delivery bicycle" speed="5.56" length="2.76" shape="942.80,1790.54 943.03,1790.24 943.92,1789.50 945.00,1788.92"/>
    </edge>
    <edge id=":1000099591_0" function="internal">
        <lane id=":1000099591_0_0" index="0" allow="pedestrian bicycle" speed="4.25" length="3.67" shape="1028.86,1745.52 1028.10,1746.01 1027.70,1746.69 1027.67,1747.56 1027.99,1748.62"/>
    </edge>
    <edge id=":1000099591_1" function="internal">
        <lane id=":1000099591_1_0" index="0" allow="pedestrian bicycle" speed="2.78" length="5.15" width="2.00" shape="1028.86,1745.52 1024.11,1747.52"/>
    </edge>
    <edge id=":1000099591_2" function="internal">
        <lane id=":1000099591_2_0" index="0" disallow="tram rail_urban rail rail_electric ship" speed="13.89" length="3.90" shape="1026.42,1745.05 1027.99,1748.62"/>
    </edge>
    <edge id=":1000099591_3" function="internal">
        <lane id=":1000099591_3_0" index="0" allow="pedestrian bicycle" speed="4.46" length="3.72" width="2.00" shape="1026.42,1745.05 1026.49,1745.68 1026.12,1746.30 1025.33,1746.91 1024.11,1747.52"/>
    </edge>
    <edge id=":1000099607_0" function="internal">
        <lane id=":1000099607_0_0" index="0" allow="bicycle" speed="5.55" length="2.02" width="2.00" shape="1015.33,1735.86 1014.56,1734.00"/>
    </edge>
    <edge id=":1000099607_1" function="internal">
        <lane id=":1000099607_1_0" index="0" allow="bicycle" speed="2.04" length="1.46" width="1.00" shape="1015.33,1735.86 1015.41,1735.42 1015.59,1735.21 1015.87,1735.23 1016.25,1735.47"/>
    </edge>
    <edge id=":1000099651_0" function="internal">
        <lane id=":1000099651_0_0" index="0" allow="pedestrian bicycle" speed="2.78" length="4.04" width="2.00" shape="1022.34,1750.99 1021.78,1750.04 1021.04,1749.50 1020.14,1749.37 1019.07,1749.65"/>
    </edge>
    <edge id=":1000099651_1" function="internal">
        <lane id=":1000099651_1_0" index="0" allow="bicycle" speed="5.55" length="5.01" width="1.00" shape="1021.88,1751.18 1019.93,1746.57"/>
    </edge>
    <edge id=":1000099651_2" function="internal">
        <lane id=":1000099651_2_0" index="0" allow="pedestrian bicycle" speed="2.78" length="5.00" width="2.00" shape="1023.68,1747.71 1019.07,1749.65"/>
    </edge>
    <edge id=":1000099651_3" function="internal">
        <lane id=":1000099651_3_0" index="0" allow="bicycle" speed="4.47" length="4.07" width="1.00" shape="1023.48,1747.25 1022.23,1747.64 1021.21,1747.66 1020.45,1747.31 1019.93,1746.57"/>
    </edge>
    <edge id=":1000099651_4" function="internal">
        <lane id=":1000099651_4_0" index="0" allow="bicycle" speed="4.65" length="2.42" width="2.00" shape="1020.85,1746.18 1021.19,1747.46 1021.05,1748.55"/>
    </edge>
    <edge id=":1000099651_5" function="internal">
        <lane id=":1000099651_5_0" index="0" allow="bicycle" speed="2.04" length="0.73" width="1.00" shape="1020.85,1746.18 1020.77,1746.62 1020.59,1746.84"/>
    </edge>
    <edge id=":1000099651_6" function="internal">
        <lane id=":1000099651_6_0" index="0" allow="bicycle" speed="4.65" length="2.42" width="2.00" shape="1021.05,1748.55 1020.40,1749.43 1019.26,1750.11"/>
    </edge>
    <edge id=":1000099651_7" function="internal">
        <lane id=":1000099651_7_0" index="0" allow="bicycle" speed="2.04" length="0.73" width="1.00" shape="1020.59,1746.84 1020.31,1746.82 1019.93,1746.57"/>
    </edge>
    <edge id=":1000099724_0" function="internal">
        <lane id=":1000099724_0_0" index="0" disallow="tram rail_urban rail rail_electric ship" speed="22.22" length="3.74" shape="1032.49,1737.34 1029.05,1738.83"/>
        <lane id=":1000099724_0_1" index="1" disallow="tram rail_urban rail rail_electric ship" speed="22.22" length="3.74" shape="1031.22,1734.41 1027.78,1735.90"/>
        <lane id=":1000099724_0_2" index="2" disallow="tram rail_urban rail rail_electric ship" speed="22.22" length="3.74" shape="1029.95,1731.47 1026.52,1732.96"/>
    </edge>
    <edge id=":1000099741_0" function="internal">
        <lane id=":1000099741_0_0" index="0" disallow="tram rail_urban rail rail_electric ship" speed="13.89" length="15.92" shape="1196.33,1570.85 1199.25,1574.72 1201.31,1577.36 1203.04,1580.17 1204.99,1584.57"/>
        <lane id=":1000099741_0_1" index="1" disallow="tram rail_urban rail rail_electric ship" speed="13.89" length="15.92" shape="1193.73,1572.70 1196.51,1576.39 1198.49,1578.89 1200.15,1581.56 1202.02,1585.75"/>
    </edge>
    <edge id=":1000099741_2" function="internal">
        <lane id=":1000099741_2_0" index="0" disallow="tram rail_urban rail rail_electric ship" speed="7.80" length="13.52" shape="1190.41,1580.85 1194.09,1579.47 1197.25,1579.82 1199.89,1581.92 1202.02,1585.75"/>
        <lane id=":1000099741_2_1" index="1" disallow="tram rail_urban rail rail_electric ship" speed="7.11" length="13.52" shape="1190.41,1580.85 1192.85,1580.14 1195.10,1580.92 1197.17,1583.18 1199.04,1586.93"/>
    </edge>
    <edge id=":1000099788_0" function="internal">
        <lane id=":1000099788_0_0" index="0" allow="pedestrian delivery bicycle" speed="5.56" length="5.09" shape="1000.33,1449.84 995.43,1448.43"/>
    </edge>
    <edge id=":1000099788_1" function="internal">
        <lane id=":1000099788_1_0" index="0" allow="pedestrian delivery bicycle" speed="3.65" length="4.67" shape="1000.33,1449.84 999.42,1448.71 999.29,1447.83 999.91,1447.18 1001.29,1446.79"/>
    </edge>
    <edge id=":1000099788_2" function="internal">
        <lane id=":1000099788_2_0" index="0" allow="pedestrian delivery bicycle" speed="5.56" length="5.28" shape="996.22,1445.33 1001.29,1446.79"/>
    </edge>
    <edge id=":1000099788_3" function="internal">
        <lane id=":1000099788_3_0" index="0" allow="pedestrian delivery bicycle" speed="3.65" length="4.67" shape="996.22,1445.33 997.18,1446.40 997.38,1447.28 996.79,1447.95 995.43,1448.43"/>
    </edge>
    <edge id=":1012326820_0" function="internal">
        <lane id=":1012326820_0_0" index="0" allow="pedestrian delivery bicycle" speed="3.66" length="4.73" shape="793.10,1451.04 792.09,1449.99 791.87,1449.11 792.44,1448.41 793.80,1447.88"/>
    </edge>
    <edge id=":1037290808_0" function="internal">
        <lane id=":1037290808_0_0" index="0" allow="pedestrian delivery bicycle" speed="5.38" length="4.71" shape="1019.90,1422.08 1018.68,1422.37 1017.75,1422.96 1017.11,1423.86 1016.76,1425.06"/>
    </edge>
    <edge id=":1037290808_1" function="internal">
        <lane id=":1037290808_1_0" index="0" allow="pedestrian delivery bicycle" speed="5.56" length="8.57" shape="1019.90,1422.08 1017.38,1422.28 1015.62,1422.19 1013.95,1421.65 1011.69,1420.53"/>
    </edge>
    <edge id=":1037290808_2" function="internal">
        <lane id=":1037290808_2_0" index="0" allow="pedestrian delivery bicycle" speed="3.65" length="4.67" shape="1019.90,1422.08 1018.63,1421.40 1018.15,1420.64 1018.47,1419.81 1019.58,1418.89"/>
    </edge>
    <edge id=":1037290808_3" function="internal">
        <lane id=":1037290808_3_0" index="0" allow="pedestrian delivery bicycle" speed="5.56" length="6.67" shape="1013.19,1417.70 1014.95,1418.57 1016.25,1418.99 1017.62,1419.06 1019.58,1418.89"/>
    </edge>
    <edge id=":1037290808_4" function="internal">
        <lane id=":1037290808_4_0" index="0" allow="pedestrian delivery bicycle" speed="5.56" length="8.79" shape="1013.19,1417.70 1015.04,1419.02 1016.25,1420.69 1016.83,1422.70 1016.76,1425.06"/>
    </edge>
    <edge id=":1037290808_5" function="internal">
        <lane id=":1037290808_5_0" index="0" allow="pedestrian delivery bicycle" speed="3.65" length="4.67" shape="1013.19,1417.70 1013.88,1418.97 1013.86,1419.86 1013.13,1420.38 1011.69,1420.53"/>
    </edge>
    <edge id=":1037290808_6" function="internal">
        <lane id=":1037290808_6_0" index="0" allow="pedestrian delivery bicycle" speed="5.56" length="4.80" shape="1013.59,1424.57 1013.64,1423.27 1013.33,1422.16 1012.69,1421.24 1011.69,1420.53"/>
    </edge>
    <edge id=":1037290808_7" function="internal">
        <lane id=":1037290808_7_0" index="0" allow="pedestrian delivery bicycle" speed="5.56" length="8.98" shape="1013.59,1424.57 1014.27,1422.28 1015.49,1420.57 1017.26,1419.44 1019.58,1418.89"/>
    </edge>
    <edge id=":1037290808_8" function="internal">
        <lane id=":1037290808_8_0" index="0" allow="pedestrian delivery bicycle" speed="3.65" length="4.67" shape="1013.59,1424.57 1014.57,1423.51 1015.42,1423.23 1016.15,1423.75 1016.76,1425.06"/>
    </edge>
    <edge id=":1037290822_0" function="internal">
        <lane id=":1037290822_0_0" index="0" allow="pedestrian delivery bicycle" speed="5.56" length="0.18" shape="1000.47,1365.29 1000.50,1365.11"/>
    </edge>
    <edge id=":1037290822_1" function="internal">
        <lane id=":1037290822_1_0" index="0" allow="pedestrian delivery bicycle" speed="3.65" length="2.34" shape="1000.47,1365.29 999.42,1366.28 998.55,1366.49"/>
    </edge>
    <edge id=":1037290822_4" function="internal">
        <lane id=":1037290822_4_0" index="0" allow="pedestrian delivery bicycle" speed="3.65" length="2.34" shape="998.55,1366.49 997.86,1365.92 997.35,1364.57"/>
    </edge>
    <edge id=":1037290822_2" function="internal">
        <lane id=":1037290822_2_0" index="0" allow="pedestrian delivery bicycle" speed="5.56" length="0.10" shape="997.37,1364.48 997.35,1364.57"/>
    </edge>
    <edge id=":1037290822_3" function="internal">
        <lane id=":1037290822_3_0" index="0" allow="pedestrian delivery bicycle" speed="3.65" length="2.34" shape="997.37,1364.48 998.39,1363.46 999.25,1363.23"/>
    </edge>
    <edge id=":1037290822_5" function="internal">
        <lane id=":1037290822_5_0" index="0" allow="pedestrian delivery bicycle" speed="3.65" length="2.34" shape="999.25,1363.23 999.96,1363.78 1000.50,1365.11"/>
    </edge>
    <edge id=":1037290863_0" function="internal">
        <lane id=":1037290863_0_0" index="0" disallow="tram rail_urban rail rail_electric ship" speed="13.89" length="7.39" shape="1002.58,1370.59 995.33,1369.12"/>
    </edge>
    <edge id=":1037290863_1" function="internal">
        <lane id=":1037290863_1_0" index="0" allow="pedestrian delivery bicycle" speed="5.72" length="6.81" shape="1002.58,1370.59 999.87,1369.99 997.99,1369.34 996.92,1368.65 996.67,1367.91"/>
    </edge>
    <edge id=":1037290863_2" function="internal">
        <lane id=":1037290863_2_0" index="0" allow="pedestrian delivery bicycle" speed="4.96" length="4.89" shape="999.81,1368.53 999.41,1369.15 998.53,1369.45 997.17,1369.44 995.33,1369.12"/>
    </edge>
    <edge id=":1037290863_3" function="internal">
        <lane id=":1037290863_3_0" index="0" allow="pedestrian delivery bicycle" speed="3.65" length="4.67" shape="999.81,1368.53 998.79,1369.55 997.93,1369.79 997.22,1369.25 996.67,1367.91"/>
    </edge>
    <edge id=":1037290889_0" function="internal">
        <lane id=":1037290889_0_0" index="0" allow="pedestrian delivery bicycle" speed="5.56" length="0.81" shape="1022.92,1401.96 1022.74,1401.80 1022.60,1401.70 1022.45,1401.64 1022.22,1401.58"/>
    </edge>
    <edge id=":1037290889_1" function="internal">
        <lane id=":1037290889_1_0" index="0" allow="pedestrian delivery bicycle" speed="3.65" length="1.96" shape="1022.92,1401.96 1022.57,1400.56 1022.71,1400.06"/>
    </edge>
    <edge id=":1037290889_4" function="internal">
        <lane id=":1037290889_4_0" index="0" allow="pedestrian delivery bicycle" speed="3.65" length="2.71" shape="1022.71,1400.06 1022.82,1399.70 1023.65,1399.37 1025.08,1399.59"/>
    </edge>
    <edge id=":1037290889_2" function="internal">
        <lane id=":1037290889_2_0" index="0" allow="pedestrian delivery bicycle" speed="5.56" length="2.43" shape="1022.97,1398.47 1023.66,1398.65 1024.13,1398.84 1024.54,1399.12 1025.08,1399.59"/>
    </edge>
    <edge id=":1037290889_3" function="internal">
        <lane id=":1037290889_3_0" index="0" allow="pedestrian delivery bicycle" speed="3.65" length="2.71" shape="1022.97,1398.47 1023.95,1399.53 1024.15,1400.40 1023.90,1400.69"/>
    </edge>
    <edge id=":1037290889_5" function="internal">
        <lane id=":1037290889_5_0" index="0" allow="pedestrian delivery bicycle" speed="3.65" length="1.96" shape="1023.90,1400.69 1023.57,1401.09 1022.22,1401.58"/>
    </edge>
    <edge id=":1037290915_0" function="internal">
        <lane id=":1037290915_0_0" index="0" allow="pedestrian delivery bicycle" speed="4.99" length="3.94" shape="1014.64,1438.89 1014.68,1439.74 1015.07,1440.51 1015.80,1441.18 1016.89,1441.76"/>
    </edge>
    <edge id=":1037290915_1" function="internal">
        <lane id=":1037290915_1_0" index="0" allow="pedestrian delivery bicycle" speed="3.65" length="4.67" shape="1014.64,1438.89 1013.67,1439.96 1012.82,1440.23 1012.09,1439.71 1011.48,1438.41"/>
    </edge>
    <edge id=":1037290915_2" function="internal">
        <lane id=":1037290915_2_0" index="0" allow="pedestrian delivery bicycle" speed="4.26" length="3.72" shape="1008.08,1438.42 1009.50,1438.84 1010.54,1438.97 1011.20,1438.83 1011.48,1438.41"/>
    </edge>
    <edge id=":1037290915_3" function="internal">
        <lane id=":1037290915_3_0" index="0" disallow="tram rail_urban rail rail_electric ship" speed="13.89" length="9.31" shape="1008.08,1438.42 1016.89,1441.76"/>
        <lane id=":1037290915_3_1" index="1" disallow="tram rail_urban rail rail_electric ship" speed="13.89" length="9.31" shape="1007.04,1441.45 1015.64,1444.70"/>
    </edge>
    <edge id=":1037290944_0" function="internal">
        <lane id=":1037290944_0_0" index="0" allow="pedestrian delivery bicycle" speed="3.65" length="4.67" shape="1001.00,1348.72 1002.05,1347.73 1002.92,1347.52 1003.61,1348.09 1004.12,1349.44"/>
    </edge>
    <edge id=":1040964328_0" function="internal">
        <lane id=":1040964328_0_0" index="0" allow="pedestrian bicycle" speed="2.78" length="5.41" width="2.00" shape="939.75,1583.53 939.16,1582.04 938.84,1580.99 938.65,1579.90 938.47,1578.31"/>
    </edge>
    <edge id=":1045044692_0" function="internal">
        <lane id=":1045044692_0_0" index="0" allow="pedestrian bicycle" speed="2.78" length="4.44" width="2.00" shape="969.46,1433.40 968.43,1432.31 967.73,1431.32 967.37,1430.44 967.35,1429.66"/>
    </edge>
    <edge id=":1045044863_0" function="internal">
        <lane id=":1045044863_0_0" index="0" allow="pedestrian bicycle" speed="2.78" length="5.21" width="2.00" shape="954.22,1614.89 953.08,1613.85 952.30,1613.11 951.69,1612.25 951.04,1610.87"/>
    </edge>
    <edge id=":1062771951_0" function="internal">
        <lane id=":1062771951_0_0" index="0" allow="pedestrian delivery bicycle" speed="5.05" length="4.99" shape="1302.72,1632.40 1301.94,1631.27 1301.00,1630.66 1299.87,1630.56 1298.57,1630.98"/>
    </edge>
    <edge id=":1062771951_1" function="internal">
        <lane id=":1062771951_1_0" index="0" allow="pedestrian delivery bicycle" speed="3.65" length="4.67" shape="1302.72,1632.40 1302.90,1630.97 1303.44,1630.26 1304.34,1630.26 1305.59,1630.98"/>
    </edge>
    <edge id=":1062771951_2" function="internal">
        <lane id=":1062771951_2_0" index="0" allow="pedestrian delivery bicycle" speed="4.54" length="3.49" shape="1304.14,1628.04 1303.95,1628.61 1304.38,1629.38 1305.06,1630.22 1305.59,1630.98"/>
    </edge>
    <edge id=":1062771951_3" function="internal">
        <lane id=":1062771951_3_0" index="0" disallow="tram rail_urban rail rail_electric ship" speed="13.89" length="6.31" shape="1304.14,1628.04 1302.56,1629.04 1301.44,1629.65 1300.27,1630.19 1298.57,1630.98"/>
    </edge>
    <edge id=":1062771990_0" function="internal">
        <lane id=":1062771990_0_0" index="0" allow="pedestrian delivery bicycle" speed="3.65" length="4.67" shape="1268.02,1656.92 1266.65,1656.45 1266.06,1655.78 1266.25,1654.90 1267.20,1653.82"/>
    </edge>
    <edge id=":1109589944_0" function="internal">
        <lane id=":1109589944_0_0" index="0" allow="pedestrian delivery bicycle" speed="5.56" length="8.80" shape="979.73,1482.66 979.52,1480.10 978.74,1478.10 977.39,1476.67 975.46,1475.80"/>
    </edge>
    <edge id=":1109589944_1" function="internal">
        <lane id=":1109589944_1_0" index="0" allow="pedestrian delivery bicycle" speed="5.56" length="11.85" shape="979.73,1482.66 980.24,1478.83 981.52,1476.34 983.56,1475.17 986.38,1475.34"/>
    </edge>
    <edge id=":1109589944_2" function="internal">
        <lane id=":1109589944_2_0" index="0" allow="pedestrian delivery bicycle" speed="3.83" length="4.68" shape="979.73,1482.66 980.07,1481.26 980.69,1480.61 981.58,1480.71 982.74,1481.56"/>
    </edge>
    <edge id=":1109589944_3" function="internal">
        <lane id=":1109589944_3_0" index="0" allow="pedestrian delivery bicycle" speed="4.66" length="6.03" shape="985.58,1478.44 983.74,1478.20 982.66,1478.64 982.33,1479.77 982.74,1481.56"/>
    </edge>
    <edge id=":1109589944_4" function="internal">
        <lane id=":1109589944_4_0" index="0" allow="pedestrian delivery bicycle" speed="5.56" length="10.46" shape="985.58,1478.44 975.46,1475.80"/>
    </edge>
    <edge id=":1109589944_5" function="internal">
        <lane id=":1109589944_5_0" index="0" allow="pedestrian delivery bicycle" speed="3.65" length="4.67" shape="985.58,1478.44 984.62,1477.36 984.43,1476.49 985.02,1475.81 986.38,1475.34"/>
    </edge>
    <edge id=":1109589944_6" function="internal">
        <lane id=":1109589944_6_0" index="0" allow="pedestrian delivery bicycle" speed="5.56" length="10.45" shape="976.27,1472.71 986.38,1475.34"/>
    </edge>
    <edge id=":1109589944_7" function="internal">
        <lane id=":1109589944_7_0" index="0" allow="pedestrian delivery bicycle" speed="5.56" length="11.30" shape="976.27,1472.71 978.00,1473.61 979.66,1475.38 981.24,1478.04 982.74,1481.56"/>
    </edge>
    <edge id=":1109589944_8" function="internal">
        <lane id=":1109589944_8_0" index="0" allow="pedestrian delivery bicycle" speed="3.65" length="4.67" shape="976.27,1472.71 977.23,1473.78 977.41,1474.66 976.82,1475.33 975.46,1475.80"/>
    </edge>
    <edge id=":1109589987_0" function="internal">
        <lane id=":1109589987_0_0" index="0" allow="pedestrian delivery bicycle" speed="5.55" length="5.47" shape="965.31,1499.90 963.69,1499.99 962.44,1500.46 961.56,1501.29 961.06,1502.50"/>