<?xml version="1.0" encoding="UTF-8"?>

<!-- generated on Thu Dec 13 14:42:12 2018 by Eclipse SUMO duarouter Version 60efd76
<configuration xmlns:xsi="http://www.w3.org/2001/XMLSchema-instance" xsi:noNamespaceSchemaLocation="http://sumo.dlr.de/xsd/duarouterConfiguration.xsd">

    <input>
        <net-file value="trento.net.xml"/>
        <route-files value="trips.trips.xml"/>
    </input>

    <output>
        <output-file value="trento_15.rou.xml"/>
        <alternatives-output value="trento_15.rou.alt.xml"/>
    </output>

    <processing>
        <ignore-errors value="true"/>
    </processing>

    <time>
        <begin value="0"/>
        <end value="3600"/>
    </time>

    <report>
        <no-warnings value="true"/>
        <no-step-log value="true"/>
    </report>

</configuration>
-->

<routes xmlns:xsi="http://www.w3.org/2001/XMLSchema-instance" xsi:noNamespaceSchemaLocation="http://sumo.dlr.de/xsd/routes_file.xsd">
    <vehicle id="route1" depart="2.00">
        <route edges="84690461#1 -84690461#1 -84690461#0 84690454#0 84690454#1 84690454#2 84690454#3 84690454#4 84690452#0 84690452#1 84690452#2 240092038 84690455 24789912#0 24789912#1 24789912#2 84690459 240607362"/>
    </vehicle>
    <vehicle id="route2" depart="4.00">
        <route edges="97251510#0 97251510#1 97251510#2 97111251#0 97111251#1 97111251#2 97111251#3 97111251#4 68286129#0 68286129#1 240092039#0 240092039#1 240092039#2 240092039#3 97084819 84690453#0 84690453#1 84690461#0 84690461#1 84690461#2 30076096#0 30076096#1 30076096#2 30076096#3 30076096#4 68286127#0 68286127#1 68286127#2 68286127#3 68286127#4 68286127#5 68286127#6 23800071#0 23800071#1 23800071#2 23800071#3 23800071#4 31301718#0 31301718#1 31301718#2 72847149#0 72847149#1 23066740#0 23066740#1 177180084 198530824 223006673#0 223006673#1 24771360#0 24771360#1 24771360#2 24771360#3 43760621#0 43760621#1 43760621#2 43760621#3 43760621#4"/>
    </vehicle>
    <vehicle id="route3" depart="6.00">
        <route edges="30076096#4 68286127#0 68286127#1 68286127#2 68286127#3 68286127#4"/>
    </vehicle>
    <vehicle id="route5" depart="10.00">
        <route edges="68286127#6 23800071#0 23800071#1 23800071#2 23800071#3 23800071#4 31301718#0 31301718#1 31301718#2 72847149#0 72847149#1 23066740#0 23066740#1 177180084 198530824 223006673#0 223006673#1 24771360#0 24771360#1 24771360#2 24771360#3 24802988#0 24802988#1 24802988#2 24802988#3 24802988#4 24802988#5 24802988#6 24802988#7 24802988#8 24802988#9 24802988#10 24802988#11 68286129#0 68286129#1 240092039#0 240092039#1 240092039#2 240092039#3 97084819 84690453#0 84690453#1 84690461#0 84690461#1 84690461#2 30076096#0 30076096#1 30076096#2"/>
    </vehicle>
    <vehicle id="route7" depart="14.00">
        <route edges="87029737#1 86060253#2 75356279#0 75356279#1 240092039#0 240092039#1 240092039#2 240092039#3 97084819 84690453#0 84690453#1 84690461#0 84690461#1 84690461#2 30076096#0 30076096#1 30076096#2 30076096#3 30076096#4 68286127#0 68286127#1 68286127#2 68286127#3 68286127#4 68286127#5 68286127#6 23800071#0 23800071#1 23800071#2 23800071#3 23800071#4 31301718#0 31301718#1 31301718#2 72847149#0 72847149#1 23066740#0 23066740#1 177180084 198530824 223006672#0 223006672#1 223006672#2 283010968#0 283010968#1 141265570 177180085 -177180085"/>
    </vehicle>
    <vehicle id="route8" depart="16.00">
        <route edges="84690448#0 84690448#1 35209298#0 35209298#1 35209298#2 35209298#3 35209301#0 35209301#1 24789912#0 -155428150#1 -155428150#0 155428150#0"/>
    </vehicle>
    <vehicle id="route10" depart="20.00">
        <route edges="240092041#3 30076096#0 30076096#1 30076096#2 30076096#3 30076096#4 68286127#0 68286127#1 68286127#2 68286127#3 68286127#4 68286127#5 68286127#6 23800071#0 23800071#1 23800071#2 23800071#3 23800071#4 31301718#0 31301718#1 31301718#2 72847149#0 72847149#1 23066740#0 23066740#1 177180084 198530824 223006673#0 223006673#1 24917678#0 24917678#1 23763916"/>
    </vehicle>
    <vehicle id="route11" depart="22.00">
        <route edges="23952132#5 223006226 23800071#0 23800071#1 23800071#2 23800071#3 23800071#4 31301718#0 31301718#1 31301718#2 72847149#0 72847149#1 23066740#0 23066740#1 177180084 198530824 223006672#0 223006672#1 223006672#2 283010968#0 283010968#1 141265570 177180085 -177180085"/>
    </vehicle>
    <vehicle id="route12" depart="24.00">
        <route edges="43760621#1 43760621#2 43760621#3 43760621#4 43760621#5 43760621#6 43760621#7 27742894#0 27742894#1 97251510#0 97251510#1 97251510#2 97111251#0 97111251#1 97111251#2 97111251#3 97111251#4 68286129#0 68286129#1 240092039#0 240092039#1 240092039#2 240092039#3 97084819 23857969#0"/>
    </vehicle>
    <vehicle id="route16" depart="32.00">
        <route edges="23066966#0 23066966#1 75417888 34663493#0 34663493#1 34663493#2 34663493#3 24917615#0 24917615#1 24917615#2 24917615#3 198530825#0 198530825#1 24917649#0 24917649#1"/>
    </vehicle>
    <vehicle id="route19" depart="38.00">
        <route edges="75356279#1 240092039#0 240092039#1 240092039#2 240092039#3 97084819 84690453#0 84690453#1 84690461#0 84690461#1 84690461#2 30076096#0 30076096#1 30076096#2 30076096#3 30076096#4 68286127#0 68286127#1 68286127#2 68286127#3 68286127#4 68286127#5 68286127#6 23800071#0 23800071#1 23800071#2 23800071#3 23800071#4 31301718#0 31301718#1 31301718#2 72847149#0 72847149#1 23066740#0 23066740#1 177180084 198530824 223006673#0 223006673#1 24771360#0 24771360#1 24771360#2 24771360#3 43760621#0 43760621#1 43760621#2 43760621#3 43760621#4 43760621#5 43760621#6 43760621#7 24909193#0 24909193#1"/>
    </vehicle>
    <vehicle id="route20" depart="40.00">
        <route edges="-84690461#2 84690461#2 30076096#0 30076096#1 30076096#2 30076096#3 30076096#4 24479479#0 24479479#1"/>
    </vehicle>
    <vehicle id="route21" depart="42.00">
        <route edges="31301718#2 72847149#0 72847149#1 23066740#0 23066740#1 177180084 198530824 223006673#0 223006673#1 24771360#0 24771360#1 24771360#2 24771360#3 24802988#0 24802988#1 24802988#2 24802988#3 24802988#4 24802988#5 24802988#6 24802988#7 24802988#8 24802988#9 24802988#10 24802988#11 68286129#0 68286129#1 240092039#0 240092039#1 240092039#2 240092039#3 97084819 84690453#0 84690453#1 84690454#0"/>
    </vehicle>
    <vehicle id="route22" depart="44.00">
        <route edges="23951767#1 23951767#2 23951767#3 393170561#0 393170561#1 393170561#2 23951806#0 23951806#1"/>
    </vehicle>
    <vehicle id="route24" depart="48.00">
        <route edges="24581835#2 -155428148#1 -155428148#0 -24771369#2 -24771369#1 -24771369#0 155428150#0 155428150#1 24789912#1 24789912#2 84690459 240607362 240092040#0 240092040#1 240092040#2 84690453#0 84690453#1 84690461#0 84690461#1 84690461#2 30076096#0 30076096#1 30076096#2 30076096#3 30076096#4 68286127#0 68286127#1 68286127#2 68286127#3 68286127#4 68286127#5 68286127#6 23800071#0 23800071#1 23800071#2 23800071#3 23800071#4 31301718#0 31301718#1 31301718#2 72847149#0 72847149#1 23066740#0 23066740#1 177180084 198530824 223006673#0 223006673#1 24917678#0 24917678#1 23763916 122602437 223001538 23763968#0 23763968#1"/>
    </vehicle>
    <vehicle id="route25" depart="50.00">
        <route edges="68286129#1 240092039#0 240092039#1 240092039#2 240092039#3 97084819 84690453#0 84690453#1 84690461#0 84690461#1 84690461#2 30076096#0 30076096#1 30076096#2 30076096#3 30076096#4 68286127#0 68286127#1 68286127#2 68286127#3 68286127#4 68286127#5 68286127#6 23800071#0 23800071#1 23800071#2 23800071#3 23800071#4 31301718#0 31301718#1 31301718#2 72847149#0 72847149#1 23066740#0 23066740#1 177180084 198530824 223006672#0 223006672#1 223006672#2 283010968#0 283010968#1 141265570 -141265570"/>
    </vehicle>
    <vehicle id="route26" depart="52.00">
        <route edges="86060253#4 97111251#2 97111251#3 97111251#4 68286129#0 68286129#1 240092039#0 240092039#1 240092039#2 240092039#3 97084819 84690453#0 84690453#1 84690454#0 84690454#1 86060253#0 86060253#1"/>
    </vehicle>
    <vehicle id="route27" depart="54.00">
        <route edges="68286127#4 68286127#5 68286127#6 23800071#0 23800071#1 23800071#2 23800071#3 23800071#4 31301718#0 31301718#1 31301718#2 72847149#0 72847149#1 23066740#0 23066740#1 177180084 198530824 223006672#0 223006672#1 223006672#2 283010968#0"/>
    </vehicle>
    <vehicle id="route28" depart="56.00">
        <route edges="84690459 240607362 240092040#0 240092040#1 240092040#2 84690453#0 84690453#1 84690461#0 84690461#1 84690461#2 30076096#0 30076096#1 30076096#2 30076096#3"/>
    </vehicle>
    <vehicle id="route29" depart="58.00">
        <route edges="34663493#1 34663493#2 34663493#3 74502611#0 74502611#1 74502611#2 24771362#0 24771362#1 24771362#2 24802988#0 24802988#1 24802988#2 24802988#3 24802988#4"/>
    </vehicle>
    <vehicle id="route30" depart="60.00">
        <route edges="97084819 84690453#0 84690453#1 84690454#0 84690454#1 86060253#0 86060253#1 86060253#2 86060253#3 86060253#4 97111251#2"/>
    </vehicle>
    <vehicle id="route31" depart="62.00">
        <route edges="68286129#1 240092039#0 240092039#1 240092039#2 240092039#3 97084819 84690453#0 84690453#1 84690461#0 84690461#1 84690461#2 30076096#0 30076096#1 30076096#2 30076096#3 30076096#4 68286127#0 68286127#1 68286127#2 68286127#3 68286127#4 68286127#5 68286127#6 23800071#0 23800071#1 23800071#2 23800071#3"/>
    </vehicle>
    <vehicle id="route33" depart="66.00">
        <route edges="-24805443#0 24581835#1 24581835#2 -155428148#1 -155428148#0 -24771369#2 -24771369#1 -24771369#0 155428150#0 155428150#1 24789912#1 24789912#2 84690459 240607362 240092040#0 240092040#1 240092040#2 84690453#0 84690453#1 84690461#0 84690461#1 84690461#2 30076096#0 30076096#1 30076096#2 30076096#3 30076096#4 68286127#0 68286127#1 68286127#2 68286127#3 68286127#4 68286127#5 68286127#6 23800071#0 23800071#1 23800071#2 23800071#3 23800071#4 31301718#0 31301718#1 31301718#2 72847149#0 72847149#1 23066740#0 23066740#1 177180084 198530824 223006672#0 223006672#1 223006672#2 283010968#0 283010968#1 141265570 177180085 23794856 141265569 110057082#0"/>
    </vehicle>
    <vehicle id="route35" depart="70.00">
        <route edges="-393170565#1 -393170565#0 393170561#0 393170561#1 393170561#2"/>
    </vehicle>
    <vehicle id="route36" depart="72.00">
        <route edges="155428148#1 -155428148#1 -155428148#0 -24771369#2 -24771369#1 -24771369#0 155428150#0 155428150#1 24789912#1 24789912#2 84690459 240607362 240092040#0 240092040#1 240092040#2 84690453#0 84690453#1 84690461#0 84690461#1 84690461#2 30076096#0 30076096#1 30076096#2 30076096#3 30076096#4 68286127#0 68286127#1 68286127#2 68286127#3 68286127#4 68286127#5 68286127#6 23800071#0 23800071#1 23800071#2 23800071#3 23800071#4 31301718#0 31301718#1 31301718#2 72847149#0 72847149#1 23066740#0 23066740#1 177180084 198530824 223006672#0 223006672#1 223006672#2 283010968#0 283010968#1 141265570 177180085 23794856 141265569"/>
    </vehicle>
    <vehicle id="route38" depart="76.00">
        <route edges="23800071#2 23800071#3 23800071#4 31301718#0 31301718#1 31301718#2 72847149#0 72847149#1 23066740#0 23066740#1 177180084 198530824 223006673#0 223006673#1 24771360#0 24771360#1 24771360#2 24771360#3 24802988#0 24802988#1 24802988#2 24802988#3 24802988#4 24802988#5 24802988#6 24802988#7 24802988#8 24802988#9 24802988#10 24802988#11 68286129#0 68286129#1 240092039#0 240092039#1 240092039#2 240092039#3 84690452#0 84690452#1 84690452#2 240092038 84690455 24789912#0 -155428150#1 -155428150#0 24771369#0 24771369#1"/>
    </vehicle>
    <vehicle id="route39" depart="78.00">
        <route edges="239979891 97121841#0 97121841#1 97121841#2 97121841#3 24771362#0 24771362#1 24771362#2 24802988#0 24802988#1 24802988#2 24802988#3 24802988#4 24802988#5 24802988#6 24802988#7 24802988#8 24802988#9 24802988#10 24802988#11 68286129#0 68286129#1 240092039#0 240092039#1 240092039#2 240092039#3 84690452#0 84690452#1 84690452#2 240092038 84690455 24789912#0 -155428150#1 -155428150#0 24771369#0"/>
    </vehicle>
    <vehicle id="route40" depart="80.00">
        <route edges="84690461#1 84690461#2 30076096#0"/>
    </vehicle>
    <vehicle id="route42" depart="84.00">
        <route edges="-24771369#1 -24771369#0 155428150#0 155428150#1 24789912#1 24789912#2 84690459 240607362 240092040#0 240092040#1 240092040#2 84690453#0 84690453#1 84690461#0 84690461#1 84690461#2 30076096#0 30076096#1 30076096#2 30076096#3 30076096#4 68286127#0 68286127#1 68286127#2 68286127#3 68286127#4 68286127#5 68286127#6 23800071#0 23800071#1 23800071#2 23800071#3 23800071#4 31301718#0 31301718#1 31301718#2 72847149#0 72847149#1 23066740#0 23066740#1 177180084 198530824 223006673#0 223006673#1 24917678#0 24917678#1 198530825#0"/>
    </vehicle>
    <vehicle id="route46" depart="92.00">
        <route edges="-84690461#0 84690461#0 84690461#1 84690461#2 30076096#0 30076096#1 30076096#2 30076096#3 30076096#4 68286127#0 68286127#1 68286127#2"/>
    </vehicle>
    <vehicle id="route47" depart="94.00">
        <route edges="24805443#1 -24805443#1 -24805443#0 24581835#1 24581835#2 -155428148#1 -155428148#0 -24771369#2 -24771369#1 -24771369#0 155428150#0 155428150#1 24789912#1 24789912#2 84690459 240607362 240092040#0 240092040#1 240092040#2 84690453#0 84690453#1 84690461#0 84690461#1 84690461#2 37956147#0 37956147#1 37956147#2 37956147#3 37956147#4"/>
    </vehicle>
    <vehicle id="route48" depart="96.00">
        <route edges="43760621#6 43760621#7 27742894#0 27742894#1"/>
    </vehicle>
    <vehicle id="route50" depart="100.00">
        <route edges="24805442#2 -24805442#2"/>
    </vehicle>
    <vehicle id="route52" depart="104.00">
        <route edges="84690448#0 84690448#1 35209298#0 35209298#1 35209298#2"/>
    </vehicle>
    <vehicle id="route53" depart="106.00">
        <route edges="24805440#0 24805440#1 24805440#2 -155428148#1 -155428148#0 -24771369#2 -24771369#1 -24771369#0 155428150#0 155428150#1 24789912#1 24789912#2 84690459 222680363 84690448#0 84690448#1 35209300 97121841#0 97121841#1 97121841#2 97121841#3 24771362#0 24771362#1 24771362#2 24802988#0"/>
    </vehicle>
    <vehicle id="route56" depart="112.00">
        <route edges="43760621#0 43760621#1 43760621#2 43760621#3 43760621#4 43760621#5 43760621#6 43760621#7 24909193#0 24909193#1 24909193#2 24909193#3 24909193#4 68286127#0 68286127#1 68286127#2 68286127#3 68286127#4 68286127#5 68286127#6 23800071#0 23800071#1 23800071#2 23800071#3 23800071#4 31301718#0 31301718#1 31301718#2 72847149#0 72847149#1 23066740#0 23066740#1 177180084 198530824 223006672#0 223006672#1 223006672#2 283010968#0 283010968#1 141265570 32359806#0 32359806#1 474153110 372798159#1 372798159#2 372798159#3"/>
    </vehicle>
    <vehicle id="route57" depart="114.00">
        <route edges="68286129#1 240092039#0 240092039#1 240092039#2 240092039#3 97084819 84690453#0 84690453#1 84690461#0 84690461#1 84690461#2 30076096#0 30076096#1 30076096#2 30076096#3 30076096#4"/>
    </vehicle>
    <vehicle id="route59" depart="118.00">
        <route edges="37956147#4 37956147#5 97111251#0 97111251#1 97111251#2 97111251#3 97111251#4 68286129#0 68286129#1 240092039#0 240092039#1 240092039#2 240092039#3 84690452#0 84690452#1 84690452#2 240092038 84690455 -35209301#1"/>
    </vehicle>
    <vehicle id="route61" depart="122.00">
        <route edges="24805442#0 -24805442#0 -155428148#1 -155428148#0 -24771369#2 -24771369#1 -24771369#0 155428150#0 155428150#1 24789912#1 24789912#2 84690459 240607362 240092040#0 240092040#1 240092040#2 84690453#0 84690453#1 84690461#0 84690461#1 84690461#2 30076096#0 30076096#1 30076096#2 30076096#3 30076096#4 68286127#0 68286127#1 68286127#2 68286127#3 68286127#4 68286127#5 68286127#6 23800071#0 23800071#1 23800071#2 23800071#3 23800071#4 31301718#0 31301718#1 31301718#2 72847149#0 72847149#1 23066740#0 23066740#1 177180084 198530824 223006673#0 223006673#1 24771360#0 24771360#1 24771360#2"/>
    </vehicle>
    <vehicle id="route64" depart="128.00">
        <route edges="-35209301#1 35209301#1 24789912#0 24789912#1 24789912#2 84690459 240607362 240092040#0 240092040#1 240092040#2 84690453#0 84690453#1 84690454#0 84690454#1 84690454#2 84690454#3 84690454#4 84690452#0"/>
    </vehicle>
    <vehicle id="route65" depart="130.00">
        <route edges="97111251#0 97111251#1 97111251#2 97111251#3 97111251#4 68286129#0 68286129#1 240092039#0 240092039#1 240092039#2 240092039#3 84690452#0 84690452#1 84690452#2 240092038 84690455 24789912#0 24789912#1 24789912#2 84690459 240607362 24805440#0"/>
    </vehicle>
    <vehicle id="route66" depart="132.00">
        <route edges="97111251#4 68286129#0 68286129#1 240092039#0 240092039#1 240092039#2 240092039#3 97084819 84690453#0 84690453#1 84690461#0 84690461#1 84690461#2 37956147#0 37956147#1 37956147#2 37956147#3 37956147#4"/>
    </vehicle>
    <vehicle id="route67" depart="134.00">
        <route edges="23058904 283010968#0 283010968#1 141265570 32359806#0 32359806#1 474153110"/>
    </vehicle>
    <vehicle id="route70" depart="140.00">
        <route edges="23066966#1 75417888 34663493#0 34663493#1 34663493#2 34663493#3 74502611#0 74502611#1 74502611#2 24771362#0 24771362#1 24771362#2 24802988#0 24802988#1"/>
    </vehicle>
    <vehicle id="route74" depart="148.00">
        <route edges="24802988#9 24802988#10 24802988#11 68286129#0 68286129#1 240092039#0 240092039#1 240092039#2 240092039#3 97084819 84690453#0 84690453#1 84690461#0 84690461#1 84690461#2 37956147#0 37956147#1 37956147#2"/>
    </vehicle>
    <vehicle id="route76" depart="152.00">
        <route edges="24805442#2 -24805442#2 -24805442#1 -24805442#0 -155428148#1 -155428148#0 -24771369#2 -24771369#1 -24771369#0 155428150#0 155428150#1 24789912#1 24789912#2 84690459 222680363 84690448#0 84690448#1 35209300 97121841#0 97121841#1 97121841#2 97121841#3 24771362#0 24771362#1 24771362#2 43760621#0 43760621#1 43760621#2 43760621#3 43760621#4 43760621#5 43760621#6 43760621#7 24909193#0 24909193#1"/>
    </vehicle>
    <vehicle id="route83" depart="166.00">
        <route edges="24789912#0 24789912#1 24789912#2 84690459 222680363 84690448#0 84690448#1 35209300 97121841#0 97121841#1 97121841#2 97121841#3 24771362#0 24771362#1 24771362#2 43760621#0 43760621#1 43760621#2 43760621#3 43760621#4"/>
    </vehicle>
    <vehicle id="route85" depart="170.00">
        <route edges="24805443#0 -24805443#0 24581835#1 24581835#2 -155428148#1 -155428148#0 -24771369#2 -24771369#1 -24771369#0 155428150#0 155428150#1 24789912#1 24789912#2 84690459 240607362 240092040#0 240092040#1 240092040#2 84690453#0 84690453#1 84690461#0 84690461#1 84690461#2 30076096#0 30076096#1 30076096#2 30076096#3 30076096#4 68286127#0 68286127#1 68286127#2 68286127#3 68286127#4 68286127#5 68286127#6 23800071#0 23800071#1 23800071#2 23800071#3 23800071#4 31301718#0 31301718#1 31301718#2 72847149#0 72847149#1 23066740#0 23066740#1 177180084 198530824 223006672#0 223006672#1 223006672#2 283010968#0 283010968#1 141265570 32359806#0"/>
    </vehicle>
    <vehicle id="route86" depart="172.00">
        <route edges="97121841#0 97121841#1 97121841#2 97121841#3 24771362#0 24771362#1 24771362#2 43760621#0 43760621#1 43760621#2 43760621#3 43760621#4 43760621#5 43760621#6 43760621#7 24909193#0 24909193#1 24909193#2 24909193#3 24909193#4 68286127#0 68286127#1 68286127#2 68286127#3 68286127#4 68286127#5 68286127#6 23800071#0 23800071#1 23800071#2 23800071#3 23800071#4 31301718#0 31301718#1 31301718#2 72847149#0 72847149#1 23066740#0 23066740#1 177180084 198530824 223006673#0 223006673#1 24917678#0 24917678#1 23763916 122602437 223001538 24917570 78785835 78785864#0"/>
    </vehicle>
    <vehicle id="route87" depart="174.00">
        <route edges="23952132#1 23952132#2 23952132#3 23952132#4 23952132#5 223006226 23800071#0 23800071#1 23800071#2 23800071#3 23800071#4 31301718#0 31301718#1 31301718#2 72847149#0 72847149#1 23066740#0 23066740#1 177180084 198530824 223006673#0 223006673#1 24771360#0 24771360#1 24771360#2 24771360#3 24802988#0 24802988#1 24802988#2 24802988#3 24802988#4 24802988#5 24802988#6 24802988#7 24802988#8 24802988#9 24802988#10 24802988#11 68286129#0 68286129#1 240092039#0 87029737#0 87029737#1 86060253#2 75356279#0 75356279#1"/>
    </vehicle>
    <vehicle id="route88" depart="176.00">
        <route edges="68286127#0 68286127#1 68286127#2 68286127#3 68286127#4 68286127#5 68286127#6 23800071#0 23800071#1 23800071#2 23800071#3 23800071#4 31301718#0 31301718#1 31301718#2 72847149#0 72847149#1 23066740#0 23066740#1 177180084 198530824 223006673#0 223006673#1 24771360#0 24771360#1 24771360#2 24771360#3 24802988#0 24802988#1 24802988#2 24802988#3 24802988#4 24802988#5 24802988#6 24802988#7 24802988#8 24802988#9 24802988#10 24802988#11 68286129#0 68286129#1 240092039#0 87029737#0 87029737#1 86060253#2 86060253#3 86060253#4 97111251#2"/>
    </vehicle>
    <vehicle id="route90" depart="180.00">
        <route edges="-24805442#1 -24805442#0 -155428148#1 -155428148#0 -24771369#2 -24771369#1 -24771369#0 155428150#0 155428150#1 24789912#1 24789912#2 84690459 240607362 240092040#0 240092040#1 240092040#2 23857969#0"/>
    </vehicle>
    <vehicle id="route91" depart="182.00">
        <route edges="35209301#1 24789912#0 24789912#1 24789912#2 84690459 240607362 24805440#0 24805440#1 24805440#2 -155428148#1 -155428148#0 155428148#0"/>
    </vehicle>
    <vehicle id="route92" depart="184.00">
        <route edges="37956147#1 37956147#2 37956147#3 37956147#4 37956147#5 97111251#0 97111251#1 97111251#2 97111251#3 97111251#4 68286129#0 68286129#1 240092039#0 240092039#1 240092039#2 240092039#3 84690452#0 84690452#1 84690452#2 84690448#0 84690448#1 35209298#0"/>
    </vehicle>
    <vehicle id="route93" depart="186.00">
        <route edges="23800071#0 23800071#1 23800071#2 23800071#3 23800071#4 31301718#0 31301718#1 31301718#2 72847149#0 72847149#1 23066740#0 23066740#1 177180084 198530824 223006673#0 223006673#1 24771360#0 24771360#1 24771360#2 24771360#3 43760621#0 43760621#1 43760621#2 43760621#3"/>
    </vehicle>
    <vehicle id="route94" depart="188.00">
        <route edges="35209300 97121841#0 97121841#1 97121841#2 97121841#3 24771362#0 24771362#1 24771362#2 24802988#0 24802988#1 24802988#2 24802988#3 24802988#4 24802988#5 24802988#6 24802988#7 24802988#8 24802988#9 24802988#10 24802988#11 68286129#0 68286129#1 240092039#0 87029737#0 87029737#1 86060253#2"/>
    </vehicle>
    <vehicle id="route95" depart="190.00">
        <route edges="24581835#0 24581835#1 24581835#2 -155428148#1 -155428148#0 -24771369#2 -24771369#1 -24771369#0 155428150#0 155428150#1 24789912#1 24789912#2 84690459 240607362 240092040#0 240092040#1 240092040#2 84690453#0 84690453#1 84690461#0 84690461#1 84690461#2 30076096#0 30076096#1 30076096#2 30076096#3 30076096#4 68286127#0 68286127#1 68286127#2 68286127#3 68286127#4 68286127#5 68286127#6 23800071#0 23800071#1 23800071#2 23800071#3 23800071#4 31301718#0 31301718#1 31301718#2 72847149#0 72847149#1 23066740#0 23066740#1 177180084 198530824 223006672#0 223006672#1 223006672#2 283010968#0 283010968#1 141265570 177180085 23794856 141265569"/>
    </vehicle>
    <vehicle id="route97" depart="194.00">
        <route edges="68286129#1 240092039#0 240092039#1 240092039#2 240092039#3 97084819 84690453#0 84690453#1 84690461#0 84690461#1 84690461#2 30076096#0 30076096#1 30076096#2 30076096#3 30076096#4 68286127#0 68286127#1 68286127#2 68286127#3 68286127#4 68286127#5 68286127#6 23800071#0 23800071#1 23800071#2 23800071#3 23800071#4 31301718#0 31301718#1 31301718#2 72847149#0 72847149#1 23066740#0 23066740#1 177180084 198530824 223006672#0 223006672#1 223006672#2 283010968#0 283010968#1 141265570 32359806#0 32359806#1"/>
    </vehicle>
    <vehicle id="route98" depart="196.00">
        <route edges="24581835#2"/>
    </vehicle>
    <vehicle id="route99" depart="198.00">
        <route edges="68286127#4 68286127#5 68286127#6 23800071#0 23800071#1 23800071#2 23800071#3 23800071#4 31301718#0 31301718#1 31301718#2 72847149#0 72847149#1 23066740#0 23066740#1 177180084 198530824 223006673#0 223006673#1 24771360#0 24771360#1 24771360#2 24771360#3 24802988#0 24802988#1 24802988#2 24802988#3 24802988#4 24802988#5 24802988#6 24802988#7 24802988#8 24802988#9 24802988#10 24802988#11 68286129#0 68286129#1 240092039#0 240092039#1 240092039#2 240092039#3 84690452#0 84690452#1 84690452#2 84690448#0"/>
    </vehicle>
    <vehicle id="route100" depart="200.00">
        <route edges="31301718#2 72847149#0 72847149#1 23066740#0 23066740#1 177180084 198530824 223006673#0 223006673#1 24917678#0 24917678#1 23763916 122602437 223001539 23763977"/>
    </vehicle>
    <vehicle id="route102" depart="204.00">
        <route edges="84690453#0 84690453#1 84690454#0 84690454#1 84690454#2 84690454#3 84690454#4 84690452#0 84690452#1 84690452#2 240092038 84690455 24789912#0 -155428150#1 -155428150#0 24771369#0 24771369#1"/>
    </vehicle>
    <vehicle id="route104" depart="208.00">
        <route edges="177180084 198530824 223006672#0 223006672#1 223006672#2"/>
    </vehicle>
    <vehicle id="route106" depart="212.00">
        <route edges="68286127#5 68286127#6 23800071#0 23800071#1 23800071#2 23800071#3 23800071#4 31301718#0 31301718#1 31301718#2 72847149#0 72847149#1 23066740#0 23066740#1 177180084 198530824 223006672#0 223006672#1 223006672#2 283010968#0 283010968#1 141265570 177180085 -177180085"/>
    </vehicle>
    <vehicle id="route107" depart="214.00">
        <route edges="240092039#3 84690452#0 84690452#1 84690452#2 240092038 84690455 24789912#0 -155428150#1 -155428150#0 24771369#0 24771369#1"/>
    </vehicle>
    <vehicle id="route109" depart="218.00">
        <route edges="97111251#4 68286129#0 68286129#1 240092039#0 240092039#1 240092039#2 240092039#3 97084819 84690453#0 84690453#1 84690461#0 84690461#1 84690461#2 30076096#0 30076096#1 30076096#2 30076096#3 30076096#4 68286127#0 68286127#1 68286127#2 68286127#3 68286127#4 68286127#5 68286127#6 23800071#0 23800071#1 23800071#2 23800071#3 23800071#4 31301718#0 31301718#1 31301718#2 72847149#0 72847149#1 23066740#0 23066740#1 177180084 198530824 223006673#0 223006673#1 24771360#0 24771360#1 24771360#2 24771360#3 24802988#0 24802988#1 24802988#2 24802988#3 24802988#4 24802988#5 24802988#6 24802988#7"/>
    </vehicle>
    <vehicle id="route111" depart="222.00">
        <route edges="97111251#1 97111251#2 97111251#3 97111251#4 68286129#0 68286129#1 240092039#0 240092039#1 240092039#2 240092039#3 97084819 84690453#0 84690453#1 84690461#0 84690461#1"/>
    </vehicle>
    <vehicle id="route114" depart="228.00">
        <route edges="34663493#0 34663493#1 34663493#2 34663493#3 74502611#0 74502611#1 74502611#2 24771362#0 24771362#1 24771362#2 24802988#0 24802988#1 24802988#2 24802988#3 24802988#4 24802988#5 24802988#6 24802988#7 24802988#8 24802988#9 24802988#10 24802988#11 68286129#0 68286129#1 240092039#0 240092039#1 240092039#2 240092039#3 97084819 23857969#0 23857969#1 -24805442#2 -24805442#1 -24805442#0"/>
    </vehicle>
    <vehicle id="route116" depart="232.00">
        <route edges="97251510#2 97111251#0 97111251#1 97111251#2 97111251#3 97111251#4 68286129#0 68286129#1 240092039#0 240092039#1 240092039#2 240092039#3 84690452#0 84690452#1 84690452#2 240092038 84690455 -35209301#1"/>
    </vehicle>
    <vehicle id="route117" depart="234.00">
        <route edges="37956147#2 37956147#3 37956147#4 37956147#5 97111251#0 97111251#1 97111251#2 97111251#3 97111251#4 68286129#0 68286129#1 240092039#0 240092039#1 240092039#2 240092039#3 84690452#0 84690452#1 84690452#2 240092038 84690455 24789912#0 24789912#1 24789912#2 84690459 240607362 24805440#0 24805440#1 24805440#2"/>
    </vehicle>
    <vehicle id="route121" depart="242.00">
        <route edges="23857969#1 -24805442#2 -24805442#1 -24805442#0 -155428148#1 -155428148#0 -24771369#2 -24771369#1 -24771369#0 155428150#0 155428150#1 24789912#1 24789912#2 84690459 240607362 240092040#0 240092040#1 240092040#2 84690453#0 84690453#1 84690454#0 84690454#1 84690454#2"/>
    </vehicle>
    <vehicle id="route125" depart="250.00">
        <route edges="74502611#2 24771362#0 24771362#1 24771362#2 24802988#0 24802988#1 24802988#2 24802988#3 24802988#4 24802988#5 24802988#6 24802988#7 24802988#8 24802988#9 24802988#10 24802988#11 68286129#0 68286129#1 240092039#0 240092039#1 240092039#2 240092039#3 97084819 23857969#0 23857969#1 -24805442#2 -24805442#1 -24805442#0"/>
    </vehicle>
    <vehicle id="route127" depart="254.00">
        <route edges="75417888 34663493#0 34663493#1 34663493#2 34663493#3 74502611#0 74502611#1 74502611#2 24771362#0 24771362#1 24771362#2 43760621#0 43760621#1 43760621#2 43760621#3 43760621#4 43760621#5 43760621#6 43760621#7 24909193#0 24909193#1 24909193#2 24909193#3 24909193#4"/>
    </vehicle>
    <vehicle id="route129" depart="258.00">
        <route edges="68286127#6 23800071#0 23800071#1 23800071#2 23800071#3 23800071#4 31301718#0 31301718#1 31301718#2 72847149#0 72847149#1 23066740#0 23066740#1 177180084 198530824 223006672#0 223006672#1 223006672#2 283010968#0"/>
    </vehicle>
    <vehicle id="route131" depart="262.00">
        <route edges="68286129#1 240092039#0 240092039#1 240092039#2 240092039#3 97084819 23857969#0 23857969#1 -24805442#2 24805442#2"/>
    </vehicle>
    <vehicle id="route136" depart="272.00">
        <route edges="23952132#5 223006226 23800071#0 23800071#1 23800071#2 23800071#3 23800071#4 31301718#0 31301718#1 31301718#2 72847149#0 72847149#1 23066740#0 23066740#1 177180084 198530824 223006673#0 223006673#1 24771360#0 24771360#1 24771360#2 24771360#3 24802988#0 24802988#1 24802988#2 24802988#3 24802988#4 24802988#5 24802988#6 24802988#7 24802988#8 24802988#9 24802988#10 24802988#11 68286129#0 68286129#1 240092039#0 240092039#1 240092039#2 240092039#3 84690452#0 84690452#1 84690452#2 84690448#0 84690448#1 35209300 97121841#0 97121841#1"/>
    </vehicle>
    <vehicle id="route139" depart="278.00">