<?xml version="1.0" encoding="UTF-8"?>

<!-- generated on Wed Dec 12 17:38:01 2018 by Eclipse SUMO netconvert Version 60efd76
<configuration xmlns:xsi="http://www.w3.org/2001/XMLSchema-instance" xsi:noNamespaceSchemaLocation="http://sumo.dlr.de/xsd/netconvertConfiguration.xsd">

    <input>
        <sumo-net-file value="bologna.net.xml"/>
    </input>

    <output>
        <plain-output-prefix value="bologna"/>
    </output>

    <processing>
        <no-turnarounds value="true"/>
        <offset.disable-normalization value="true"/>
        <lefthand value="false"/>
        <junctions.corner-detail value="0"/>
        <rectangular-lane-cut value="false"/>
        <walkingareas value="false"/>
    </processing>

</configuration>
-->

<edges version="0.27" xmlns:xsi="http://www.w3.org/2001/XMLSchema-instance" xsi:noNamespaceSchemaLocation="http://sumo.dlr.de/xsd/edges_file.xsd">
    <edge id="-105068052" from="1211136870" to="1211136497" priority="2" type="highway.service" numLanes="1" speed="5.56" allow="delivery bicycle pedestrian"/>
    <edge id="-105068057" from="1211136595" to="1211136870" priority="2" type="highway.service" numLanes="1" speed="5.56" shape="779.14,1323.07 778.13,1329.13 776.83,1336.97" allow="delivery bicycle pedestrian"/>
    <edge id="-105956783#0" from="959911102" to="1220020607" priority="2" type="highway.service" numLanes="1" speed="5.56" allow="delivery bicycle pedestrian"/>
    <edge id="-105956783#1" from="1662768832" to="959911102" priority="2" type="highway.service" numLanes="1" speed="5.56" allow="delivery bicycle pedestrian"/>
    <edge id="-105956789" from="1220020592" to="1220020679" priority="2" type="highway.service" numLanes="1" speed="5.56" allow="delivery bicycle pedestrian"/>
    <edge id="-105956792" from="1220020679" to="1220020673" priority="2" type="highway.service" numLanes="1" speed="5.56" shape="1167.38,1498.76 1174.92,1500.00 1187.38,1502.04" allow="delivery bicycle pedestrian"/>
    <edge id="-105956803#0" from="1492679749" to="1220020656" priority="2" type="highway.service" numLanes="1" speed="5.56" shape="1000.63,1675.63 1001.98,1675.03 1015.39,1669.22" allow="delivery bicycle pedestrian"/>
    <edge id="-105956803#1" from="1220020588" to="1492679749" priority="2" type="highway.service" numLanes="1" speed="5.56" allow="delivery bicycle pedestrian"/>
    <edge id="-105956818#0" from="1220020673" to="1220020545" priority="2" type="highway.service" numLanes="1" speed="5.56" shape="1187.38,1502.04 1187.38,1500.61 1187.38,1498.45 1196.37,1498.86 1196.06,1502.41" allow="delivery bicycle pedestrian"/>
    <edge id="-105956818#1" from="1220020545" to="1220020673" priority="2" type="highway.service" numLanes="1" speed="5.56" shape="1196.06,1502.41 1195.80,1505.39 1187.38,1504.41 1187.38,1502.04" allow="delivery bicycle pedestrian"/>
    <edge id="-107222545#0" from="927359107" to="864204787" priority="2" type="highway.service" numLanes="1" speed="5.56" allow="delivery bicycle pedestrian"/>
    <edge id="-107222545#1" from="927358771" to="927359107" priority="2" type="highway.service" numLanes="1" speed="5.56" shape="1002.48,1295.84 1002.74,1292.11 999.07,1291.86 999.27,1289.04 985.07,1288.05 984.63,1294.24" allow="delivery bicycle pedestrian"/>
    <edge id="-107222545#2" from="927358829" to="927358771" priority="2" type="highway.service" numLanes="1" speed="5.56" shape="991.39,1301.60 998.71,1302.16 998.92,1299.19 1002.23,1299.43 1002.48,1295.84" allow="delivery bicycle pedestrian"/>
    <edge id="-107222545#3" from="864204787" to="927358829" priority="2" type="highway.service" numLanes="1" speed="5.56" allow="delivery bicycle pedestrian"/>
    <edge id="-107222546#0" from="927358839" to="892578709" priority="2" type="highway.service" numLanes="1" speed="5.56" allow="delivery bicycle pedestrian"/>
    <edge id="-107222546#1" from="892578709" to="927358839" priority="2" type="highway.service" numLanes="1" speed="5.56" shape="1011.48,1300.01 1022.91,1300.73 1023.99,1293.25 1012.13,1292.60 1011.81,1296.28" allow="delivery bicycle pedestrian"/>
    <edge id="-110057082#0" from="2578615032" to="270753674" priority="6" type="highway.tertiary" numLanes="1" speed="13.89" shape="752.21,1283.84 746.26,1315.18 745.16,1320.37 737.59,1340.82" disallow="tram rail_urban rail rail_electric ship"/>
    <edge id="-110057082#1" from="2578615022" to="2578615032" priority="6" type="highway.tertiary" numLanes="1" speed="13.89" disallow="tram rail_urban rail rail_electric ship"/>
    <edge id="-110057082#2" from="877621010" to="2578615022" priority="6" type="highway.tertiary" numLanes="1" speed="13.89" disallow="tram rail_urban rail rail_electric ship"/>
    <edge id="-110057082#3" from="257482421" to="877621010" priority="6" type="highway.tertiary" numLanes="1" speed="13.89" disallow="tram rail_urban rail rail_electric ship"/>
    <edge id="-111651678#0" from="1271504838" to="1271504788" priority="2" type="highway.service" numLanes="1" speed="5.56" allow="delivery bicycle pedestrian"/>
    <edge id="-111651678#1" from="1271504871" to="1271504838" priority="2" type="highway.service" numLanes="1" speed="5.56" shape="1079.07,1443.33 1077.63,1447.15 1070.55,1461.81 1067.80,1466.71" allow="delivery bicycle pedestrian"/>
    <edge id="-116417076#0" from="1312440659" to="877620998" priority="2" type="highway.service" numLanes="1" speed="5.56" allow="delivery bicycle pedestrian"/>
    <edge id="-116417076#1" from="1012326820" to="1312440659" priority="2" type="highway.service" numLanes="1" speed="5.56" shape="797.25,1450.93 806.74,1454.60 814.86,1455.14" allow="delivery bicycle pedestrian"/>
    <edge id="-122270354" from="1366801217" to="1366801221" priority="2" type="highway.service" numLanes="1" speed="5.56" shape="1271.50,1368.34 1275.19,1370.47 1289.16,1372.42" allow="delivery bicycle pedestrian"/>
    <edge id="-122270357" from="1366801262" to="1366801267" priority="2" type="highway.service" numLanes="1" speed="5.56" shape="1294.44,1478.77 1296.82,1491.52 1310.87,1496.18 1318.01,1498.41" allow="delivery bicycle pedestrian"/>
    <edge id="-126257137#0" from="1768099971" to="5595169724" priority="2" type="highway.service" numLanes="1" speed="5.56" shape="1317.42,1515.05 1313.12,1545.41 1314.90,1547.82" allow="delivery bicycle pedestrian"/>
    <edge id="-126257137#1" from="889555237" to="1768099971" priority="2" type="highway.service" numLanes="1" speed="5.56" allow="delivery bicycle pedestrian"/>
    <edge id="-126257137#2" from="955280721" to="889555237" priority="2" type="highway.service" numLanes="1" speed="5.56" allow="delivery bicycle pedestrian"/>
    <edge id="-136026918#0" from="1492802033" to="1492802030" priority="2" type="highway.service" numLanes="1" speed="5.56" allow="delivery bicycle pedestrian"/>
    <edge id="-136026918#1" from="1492802080" to="1492802033" priority="2" type="highway.service" numLanes="1" speed="5.56" shape="1174.72,1663.32 1172.82,1659.85 1123.52,1571.17 1120.05,1564.67" allow="delivery bicycle pedestrian"/>
    <edge id="-136026918#2" from="1492802093" to="1492802080" priority="2" type="highway.service" numLanes="1" speed="5.56" allow="delivery bicycle pedestrian"/>
    <edge id="-138943290" from="1523162665" to="1523162688" priority="2" type="highway.service" numLanes="1" speed="5.56" shape="1243.53,1276.83 1235.62,1281.63 1233.97,1281.73 1224.36,1282.32" allow="delivery bicycle pedestrian"/>
    <edge id="-139193226" from="1525505187" to="880590573" priority="2" type="highway.service" numLanes="1" speed="5.56" allow="delivery bicycle pedestrian"/>
    <edge id="-141265570" from="438166680" to="960695311" priority="6" type="highway.tertiary" numLanes="1" speed="13.89" shape="732.35,1381.31 746.69,1385.64 754.78,1387.34" disallow="tram rail_urban rail rail_electric ship"/>
    <edge id="-142436090" from="985533577" to="985533488" priority="2" type="highway.service" numLanes="1" speed="5.56" shape="703.23,1328.03 701.15,1341.40 699.05,1350.69" allow="delivery bicycle pedestrian"/>
    <edge id="-145440153#0" from="1588583836" to="1588583838" priority="2" type="highway.service" numLanes="1" speed="5.56" allow="delivery bicycle pedestrian"/>
    <edge id="-145440153#1" from="969087828" to="1588583836" priority="2" type="highway.service" numLanes="1" speed="5.56" allow="delivery bicycle pedestrian"/>
    <edge id="-145440155#0" from="1588583830" to="969087828" priority="2" type="highway.service" numLanes="1" speed="5.56" shape="829.12,1379.00 817.83,1378.60 817.50,1388.09 820.76,1388.20" allow="delivery bicycle pedestrian"/>
    <edge id="-145440155#1" from="969087828" to="1588583830" priority="2" type="highway.service" numLanes="1" speed="5.56" shape="820.76,1388.20 828.79,1388.48 829.12,1379.00" allow="delivery bicycle pedestrian"/>
    <edge id="-148739873#0" from="1618076279" to="1618076280" priority="2" type="highway.service" numLanes="1" speed="5.56" allow="delivery bicycle pedestrian"/>
    <edge id="-148739873#1" from="1618076276" to="1618076279" priority="2" type="highway.service" numLanes="1" speed="5.56" shape="1152.14,1636.78 1136.65,1646.40 1133.51,1648.35" allow="delivery bicycle pedestrian"/>
    <edge id="-149811078" from="1627542972" to="1627542968" priority="2" type="highway.service" numLanes="1" speed="5.56" allow="delivery bicycle pedestrian"/>
    <edge id="-149811080" from="1627542968" to="1520433227" priority="2" type="highway.service" numLanes="1" speed="5.56" allow="delivery bicycle pedestrian"/>
    <edge id="-149811082#0" from="955280675" to="1627542972" priority="2" type="highway.service" numLanes="1" speed="5.56" shape="1152.98,1460.59 1147.87,1460.54 1148.14,1452.85 1150.64,1452.89" allow="delivery bicycle pedestrian"/>
    <edge id="-149811082#1" from="1627542972" to="955280675" priority="2" type="highway.service" numLanes="1" speed="5.56" shape="1150.64,1452.89 1153.76,1452.94 1153.58,1454.19 1152.98,1460.59" allow="delivery bicycle pedestrian"/>
    <edge id="-150380279" from="1633007387" to="1633007386" priority="2" type="highway.service" numLanes="1" speed="5.56" allow="delivery bicycle pedestrian"/>
    <edge id="-150380280" from="1633007386" to="1633007385" priority="2" type="highway.service" numLanes="1" speed="5.56" allow="delivery bicycle pedestrian"/>
    <edge id="-150380286#0" from="937177998" to="1633007387" priority="2" type="highway.service" numLanes="1" speed="5.56" shape="1117.93,1411.68 1117.88,1421.02 1109.64,1419.84 1110.14,1416.49" allow="delivery bicycle pedestrian"/>
    <edge id="-150380286#1" from="1633007387" to="937177998" priority="2" type="highway.service" numLanes="1" speed="5.56" shape="1110.14,1416.49 1111.00,1410.86 1117.93,1411.68" allow="delivery bicycle pedestrian"/>
    <edge id="-150959946" from="1638162367" to="1638162372" priority="2" type="highway.service" numLanes="1" speed="5.56" allow="delivery bicycle pedestrian"/>
    <edge id="-150959948" from="1638162321" to="1271504871" priority="2" type="highway.service" numLanes="1" speed="5.56" shape="1077.33,1432.07 1074.23,1441.77 1079.07,1443.33" allow="delivery bicycle pedestrian"/>
    <edge id="-150959952#0" from="1638162374" to="1638162381" priority="2" type="highway.service" numLanes="1" speed="5.56" allow="delivery bicycle pedestrian"/>
    <edge id="-150959952#1" from="1638162372" to="1638162374" priority="2" type="highway.service" numLanes="1" speed="5.56" allow="delivery bicycle pedestrian"/>
    <edge id="-150959953#0" from="1832336859" to="1638162350" priority="2" type="highway.service" numLanes="1" speed="5.56" allow="delivery bicycle pedestrian"/>
    <edge id="-150959953#1" from="1638162257" to="1832336859" priority="2" type="highway.service" numLanes="1" speed="5.56" allow="delivery bicycle pedestrian"/>
    <edge id="-150959954" from="1638162370" to="1638162362" priority="2" type="highway.service" numLanes="1" speed="5.56" shape="1064.81,1692.33 1086.98,1683.24 1090.44,1681.83" allow="delivery bicycle pedestrian"/>
    <edge id="-150959955#0" from="1638162362" to="1638162367" priority="2" type="highway.service" numLanes="1" speed="5.56" allow="delivery bicycle pedestrian"/>
    <edge id="-150959955#1" from="2414322174" to="1638162362" priority="2" type="highway.service" numLanes="1" speed="5.56" shape="1079.92,1656.26 1089.84,1680.30 1090.44,1681.83" allow="delivery bicycle pedestrian"/>
    <edge id="-150959956#0" from="1638162333" to="1638162329" priority="2" type="highway.service" numLanes="1" speed="5.56" allow="delivery bicycle pedestrian"/>
    <edge id="-150959956#1" from="1638162337" to="1638162333" priority="2" type="highway.service" numLanes="1" speed="5.56" allow="delivery bicycle pedestrian"/>
    <edge id="-151151172#0" from="2316880949" to="1639755599" priority="2" type="highway.service" numLanes="1" speed="5.56" allow="delivery bicycle pedestrian"/>
    <edge id="-151151172#1" from="990461813" to="2316880949" priority="2" type="highway.service" numLanes="1" speed="5.56" allow="delivery bicycle pedestrian"/>
    <edge id="-151331992" from="1641560176" to="975288681" priority="2" type="highway.service" numLanes="1" speed="5.56" allow="delivery bicycle pedestrian"/>
    <edge id="-151331995#0" from="5244288701" to="1641560177" priority="2" type="highway.service" numLanes="1" speed="5.56" allow="delivery bicycle pedestrian"/>
    <edge id="-151331995#1" from="975288681" to="5244288701" priority="2" type="highway.service" numLanes="1" speed="5.56" allow="delivery bicycle pedestrian"/>
    <edge id="-151331996#0" from="877728887" to="1641560176" priority="2" type="highway.service" numLanes="1" speed="5.56" shape="928.00,1220.73 934.70,1223.03 939.70,1224.74 940.45,1220.15" allow="delivery bicycle pedestrian"/>
    <edge id="-151331996#1" from="1641560176" to="877728887" priority="2" type="highway.service" numLanes="1" speed="5.56" shape="940.45,1220.15 941.00,1216.74 929.12,1214.71 928.00,1220.73" allow="delivery bicycle pedestrian"/>
    <edge id="-153639941" from="1662768848" to="1662768874" priority="2" type="highway.service" numLanes="1" speed="5.56" shape="1047.47,1674.87 1049.40,1679.70 1051.95,1682.97" allow="delivery bicycle pedestrian"/>
    <edge id="-153639949" from="1220020656" to="959911102" priority="2" type="highway.service" numLanes="1" speed="5.56" shape="1015.39,1669.22 1028.71,1663.67 1045.42,1656.81" allow="delivery bicycle pedestrian"/>
    <edge id="-153639986" from="1662768874" to="1662768832" priority="2" type="highway.service" numLanes="1" speed="5.56" shape="1051.95,1682.97 1053.90,1683.02 1054.83,1681.96 1054.91,1679.96 1053.02,1675.37 1050.21,1668.51" allow="delivery bicycle pedestrian"/>
    <edge id="-154140545#0" from="1000099503" to="1000099651" priority="1" type="highway.cycleway" numLanes="1" speed="8.33" width="1.00" allow="bicycle"/>
    <edge id="-154140545#1" from="1000099607" to="1000099503" priority="1" type="highway.cycleway" numLanes="1" speed="8.33" width="1.00" allow="bicycle"/>
    <edge id="-155428148#0" from="1639755560" to="1678228083" priority="5" type="highway.unclassified" numLanes="1" speed="13.89" disallow="tram rail_urban rail rail_electric ship"/>
    <edge id="-155428148#1" from="269498432" to="1639755560" priority="5" type="highway.unclassified" numLanes="1" speed="13.89" disallow="tram rail_urban rail rail_electric ship"/>
    <edge id="-155428150#0" from="1271504913" to="560584143" priority="5" type="highway.unclassified" numLanes="1" speed="13.89" shape="1313.86,1632.85 1318.30,1638.64 1321.79,1640.07 1324.58,1639.44 1342.29,1632.22 1352.41,1631.97 1355.61,1633.74" disallow="tram rail_urban rail rail_electric ship"/>
    <edge id="-155428150#1" from="269184879" to="1271504913" priority="5" type="highway.unclassified" numLanes="1" speed="13.89" disallow="tram rail_urban rail rail_electric ship"/>
    <edge id="-155428153" from="1678228078" to="1678228032" priority="2" type="highway.service" numLanes="1" speed="5.56" allow="delivery bicycle pedestrian"/>
    <edge id="-155428155#0" from="1678228091" to="268767922" priority="2" type="highway.service" numLanes="1" speed="5.56" allow="delivery bicycle pedestrian"/>
    <edge id="-155428155#1" from="1678228101" to="1678228091" priority="2" type="highway.service" numLanes="1" speed="5.56" allow="delivery bicycle pedestrian"/>
    <edge id="-155428159" from="1678228110" to="1678228091" priority="2" type="highway.service" numLanes="1" speed="5.56" shape="1334.18,1789.46 1342.65,1763.23 1343.41,1760.87 1344.65,1757.01" allow="delivery bicycle pedestrian"/>
    <edge id="-162103987" from="1740376156" to="1740376157" priority="2" type="highway.service" numLanes="1" speed="5.56" shape="1155.48,1512.43 1154.36,1514.59 1151.98,1519.19" allow="delivery bicycle pedestrian"/>
    <edge id="-162103988#0" from="1740376159" to="1740376160" priority="2" type="highway.service" numLanes="1" speed="5.56" allow="delivery bicycle pedestrian"/>
    <edge id="-162103988#1" from="1740376157" to="1740376159" priority="2" type="highway.service" numLanes="1" speed="5.56" allow="delivery bicycle pedestrian"/>
    <edge id="-165253592#0" from="1768099970" to="1768099971" priority="2" type="highway.service" numLanes="1" speed="5.56" allow="delivery bicycle pedestrian"/>
    <edge id="-165253592#1" from="1768099917" to="1768099970" priority="2" type="highway.service" numLanes="1" speed="5.56" allow="delivery bicycle pedestrian"/>
    <edge id="-177180085" from="247796034" to="438166680" priority="6" type="highway.tertiary" numLanes="1" speed="13.89" shape="724.41,1369.92 725.10,1376.94 732.35,1381.31" disallow="tram rail_urban rail rail_electric ship"/>
    <edge id="-195832706" from="3959744571" to="3959744573" priority="4" type="highway.residential" numLanes="1" speed="13.89" shape="736.00,1739.00 734.15,1733.84 732.01,1727.83" disallow="tram rail_urban rail rail_electric ship"/>
    <edge id="-209832706#0" from="2578614998" to="2199999053" priority="2" type="highway.service" numLanes="1" speed="5.56" allow="delivery bicycle pedestrian"/>
    <edge id="-209832706#1" from="2199999054" to="2578614998" priority="2" type="highway.service" numLanes="1" speed="5.56" shape="748.61,1222.10 756.30,1221.94 759.86,1221.87 760.83,1221.85" allow="delivery bicycle pedestrian"/>
    <edge id="-209832708#0" from="923132465" to="2199999054" priority="2" type="highway.service" numLanes="1" speed="5.56" shape="729.85,1231.11 734.63,1231.46 735.12,1229.90 748.47,1229.43 748.61,1222.10" allow="delivery bicycle pedestrian"/>
    <edge id="-209832708#1" from="2199999054" to="923132465" priority="2" type="highway.service" numLanes="1" speed="5.56" shape="748.61,1222.10 748.80,1217.04 741.45,1216.50 732.90,1215.97 729.85,1231.11" allow="delivery bicycle pedestrian"/>
    <edge id="-226623957" from="1768099967" to="1768099917" priority="2" type="highway.service" numLanes="1" speed="5.56" allow="delivery bicycle pedestrian"/>
    <edge id="-228044900" from="2366965226" to="2366965227" priority="5" type="highway.unclassified" numLanes="1" speed="13.89" disallow="tram rail_urban rail rail_electric ship"/>
    <edge id="-228044902" from="269498433" to="2366965226" priority="5" type="highway.unclassified" numLanes="1" speed="13.89" disallow="tram rail_urban rail rail_electric ship"/>
    <edge id="-229258869#0" from="2390850271" to="1638162257" priority="2" type="highway.service" numLanes="1" speed="5.56" allow="delivery bicycle pedestrian"/>
    <edge id="-229258869#1" from="2375041389" to="2390850271" priority="2" type="highway.service" numLanes="1" speed="5.56" shape="1100.38,1650.95 1107.47,1666.31 1112.52,1664.05" allow="delivery bicycle pedestrian"/>
    <edge id="-230596875" from="2390850265" to="2390850268" priority="2" type="highway.service" numLanes="1" speed="5.56" shape="1085.98,1618.59 1092.78,1634.77 1094.49,1638.89" allow="delivery bicycle pedestrian"/>
    <edge id="-233089430#0" from="2390850268" to="1638162345" priority="2" type="highway.service" numLanes="1" speed="5.56" allow="delivery bicycle pedestrian"/>
    <edge id="-233089430#1" from="1638162337" to="2390850268" priority="2" type="highway.service" numLanes="1" speed="5.56" allow="delivery bicycle pedestrian"/>
    <edge id="-23794856" from="1258258237" to="247796034" priority="6" type="highway.tertiary" numLanes="1" speed="13.89" shape="734.19,1347.31 725.96,1363.27 724.41,1369.92" disallow="tram rail_urban rail rail_electric ship"/>
    <edge id="-23951767#0" from="259651250" to="259648688" priority="6" type="highway.tertiary" numLanes="1" speed="22.22" shape="815.55,2129.62 816.23,2131.95 819.44,2142.87" disallow="tram rail_urban rail rail_electric ship"/>
    <edge id="-23951767#1" from="4900135996" to="259651250" priority="6" type="highway.tertiary" numLanes="1" speed="22.22" shape="719.17,1802.38 723.73,1817.88 726.28,1826.32 741.54,1878.20 744.38,1887.82 752.60,1915.83 761.20,1945.14 763.81,1953.98 774.46,1990.07 780.66,2011.09 780.89,2011.90 789.13,2039.89 800.24,2077.63 815.55,2129.62" disallow="tram rail_urban rail rail_electric ship"/>
    <edge id="-23951767#2" from="3959747667" to="4900135996" priority="6" type="highway.tertiary" numLanes="1" speed="22.22" disallow="tram rail_urban rail rail_electric ship"/>
    <edge id="-23951767#3" from="278817801" to="3959747667" priority="6" type="highway.tertiary" numLanes="1" speed="22.22" disallow="tram rail_urban rail rail_electric ship"/>
    <edge id="-23951806#0" from="2275120553" to="259648687" priority="4" type="highway.residential" numLanes="1" speed="13.89" disallow="tram rail_urban rail rail_electric ship"/>
    <edge id="-23951806#1" from="259648686" to="2275120553" priority="4" type="highway.residential" numLanes="1" speed="13.89" shape="612.69,1660.86 622.29,1658.10 663.17,1646.38" disallow="tram rail_urban rail rail_electric ship"/>
    <edge id="-239994668" from="885669907" to="339339512" priority="4" type="highway.residential" numLanes="1" speed="13.89" disallow="tram rail_urban rail rail_electric ship"/>
    <edge id="-24771369#0" from="1678228032" to="560584143" priority="5" type="highway.unclassified" numLanes="1" speed="13.89" disallow="tram rail_urban rail rail_electric ship"/>
    <edge id="-24771369#1" from="268767922" to="1678228032" priority="5" type="highway.unclassified" numLanes="1" speed="13.89" shape="1335.67,1753.72 1383.25,1645.33 1358.27,1635.21" disallow="tram rail_urban rail rail_electric ship"/>
    <edge id="-24771369#2" from="1678228083" to="268767922" priority="5" type="highway.unclassified" numLanes="1" speed="13.89" disallow="tram rail_urban rail rail_electric ship"/>
    <edge id="-24772501" from="268588705" to="259643670" priority="5" type="highway.unclassified" numLanes="1" speed="13.89" shape="1328.74,1811.93 1317.15,1824.86 1302.17,1846.64 1294.60,1858.77 1261.71,1901.55 1253.70,1907.61" disallow="tram rail_urban rail rail_electric ship"/>
    <edge id="-24805442#0" from="1639755557" to="269498432" priority="5" type="highway.unclassified" numLanes="1" speed="13.89" disallow="tram rail_urban rail rail_electric ship"/>
    <edge id="-24805442#1" from="1492802180" to="1639755557" priority="5" type="highway.unclassified" numLanes="1" speed="13.89" disallow="tram rail_urban rail rail_electric ship"/>
    <edge id="-24805442#2" from="434444550" to="1492802180" priority="5" type="highway.unclassified" numLanes="1" speed="13.89" disallow="tram rail_urban rail rail_electric ship"/>
    <edge id="-24805443#0" from="2316882460" to="269184892" priority="5" type="highway.unclassified" numLanes="1" speed="13.89" disallow="tram rail_urban rail rail_electric ship"/>
    <edge id="-24805443#1" from="2366965227" to="2316882460" priority="5" type="highway.unclassified" numLanes="1" speed="13.89" disallow="tram rail_urban rail rail_electric ship"/>
    <edge id="-24917590#0" from="270753180" to="270752940" priority="5" type="highway.unclassified" numLanes="1" speed="13.89" shape="795.39,1282.93 820.13,1283.81 818.40,1297.88 796.98,1296.93" disallow="tram rail_urban rail rail_electric ship"/>
    <edge id="-24917590#1" from="270752940" to="270753180" priority="5" type="highway.unclassified" numLanes="1" speed="13.89" disallow="tram rail_urban rail rail_electric ship"/>
    <edge id="-251677521" from="2578615032" to="2578615030" priority="2" type="highway.service" numLanes="1" speed="5.56" allow="delivery bicycle pedestrian"/>
    <edge id="-251677522" from="2578615020" to="2578615022" priority="2" type="highway.service" numLanes="1" speed="5.56" allow="delivery bicycle pedestrian"/>
    <edge id="-251677524#0" from="2578615018" to="2578615020" priority="2" type="highway.service" numLanes="1" speed="5.56" allow="delivery bicycle pedestrian"/>
    <edge id="-251677524#1" from="2578615017" to="2578615018" priority="2" type="highway.service" numLanes="1" speed="5.56" allow="delivery bicycle pedestrian"/>
    <edge id="-251677525" from="2615218156" to="2578615017" priority="2" type="highway.service" numLanes="1" speed="5.56" shape="729.70,1279.61 725.57,1278.83 727.39,1269.45 737.04,1271.21" allow="delivery bicycle pedestrian"/>
    <edge id="-25578768#0" from="5754724119" to="298264748" priority="1" type="highway.cycleway" numLanes="1" speed="8.33" width="1.00" allow="bicycle"/>
    <edge id="-25578768#1" from="3959610941" to="5754724119" priority="1" type="highway.cycleway" numLanes="1" speed="8.33" width="1.00" allow="bicycle"/>
    <edge id="-25578800" from="278816451" to="259648687" priority="6" type="highway.tertiary" numLanes="1" speed="11.11" shape="577.15,1487.05 583.27,1506.34 584.93,1510.60 586.92,1514.34 589.67,1517.48 592.87,1519.41 597.23,1521.29 612.69,1527.95 624.67,1533.12 640.03,1539.41 642.50,1540.97 644.58,1543.10 651.47,1568.57 672.67,1643.65" disallow="tram rail_urban rail rail_electric ship"/>
    <edge id="-255826014#0" from="2578615028" to="2615218156" priority="2" type="highway.service" numLanes="1" speed="5.56" allow="delivery bicycle pedestrian"/>
    <edge id="-255826014#1" from="2578615030" to="2578615028" priority="2" type="highway.service" numLanes="1" speed="5.56" allow="delivery bicycle pedestrian"/>
    <edge id="-259938229#0" from="2858849131" to="2653965261" priority="2" type="highway.service" numLanes="1" speed="5.56" shape="966.97,1711.47 967.68,1713.11 971.28,1721.39 992.11,1712.40 1000.48,1731.67 979.55,1740.70 973.91,1743.13" allow="delivery bicycle pedestrian"/>
    <edge id="-259938229#1" from="975288385" to="2858849131" priority="2" type="highway.service" numLanes="1" speed="5.56" allow="delivery bicycle pedestrian"/>
    <edge id="-263697205" from="2693303451" to="2693303454" priority="2" type="highway.service" numLanes="1" speed="5.56" allow="delivery bicycle pedestrian"/>
    <edge id="-268278353#0" from="2736324514" to="2736324516" priority="2" type="highway.service" numLanes="1" speed="5.56" shape="1181.04,1807.03 1183.33,1807.13 1186.87,1807.28" allow="delivery bicycle pedestrian"/>
    <edge id="-268278353#1" from="2736324513" to="2736324514" priority="2" type="highway.service" numLanes="1" speed="5.56" allow="delivery bicycle pedestrian"/>
    <edge id="-27503570#0" from="445811739" to="247792029" priority="2" type="highway.service" numLanes="1" speed="5.56" allow="delivery bicycle pedestrian"/>
    <edge id="-27503570#1" from="2390597889" to="445811739" priority="2" type="highway.service" numLanes="1" speed="5.56" allow="delivery bicycle pedestrian"/>
    <edge id="-27503570#2" from="939851139" to="2390597889" priority="2" type="highway.service" numLanes="1" speed="5.56" allow="delivery bicycle pedestrian"/>
    <edge id="-27503570#3" from="1156723779" to="939851139" priority="2" type="highway.service" numLanes="1" speed="5.56" allow="delivery bicycle pedestrian"/>
    <edge id="-27503570#4" from="247792032" to="1156723779" priority="2" type="highway.service" numLanes="1" speed="5.56" allow="delivery bicycle pedestrian"/>
    <edge id="-283010968#0" from="1588583838" to="877620889" priority="6" type="highway.tertiary" numLanes="1" speed="13.89" disallow="tram rail_urban rail rail_electric ship"/>
    <edge id="-283010968#1" from="960695311" to="1588583838" priority="6" type="highway.tertiary" numLanes="1" speed="13.89" shape="754.78,1387.34 757.94,1388.00 768.49,1390.19 819.88,1400.29" disallow="tram rail_urban rail rail_electric ship"/>
    <edge id="-35209301#0" from="888452714" to="257040645" priority="7" type="highway.secondary" numLanes="1" speed="27.78" shape="1330.49,1588.89 1356.85,1535.35 1369.15,1508.46 1379.94,1474.08 1383.48,1467.78" disallow="tram rail_urban rail rail_electric ship"/>
    <edge id="-35209301#1" from="256546885" to="888452714" priority="7" type="highway.secondary" numLanes="1" speed="27.78" disallow="tram rail_urban rail rail_electric ship"/>
    <edge id="-392747172#0" from="3959747666" to="3959310909" priority="1" type="highway.cycleway" numLanes="1" speed="8.33" width="1.00" allow="bicycle"/>
    <edge id="-392747172#1" from="3959310911" to="3959747666" priority="1" type="highway.cycleway" numLanes="1" speed="8.33" width="1.00" allow="bicycle"/>
    <edge id="-392747173#0" from="3959332302" to="3959310912" priority="1" type="highway.cycleway" numLanes="1" speed="8.33" width="1.00" allow="bicycle"/>
    <edge id="-392747173#1" from="3959310913" to="3959332302" priority="1" type="highway.cycleway" numLanes="1" speed="8.33" shape="664.77,1651.50 669.63,1653.66 680.81,1690.25" width="1.00" allow="bicycle"/>
    <edge id="-392747174#0" from="975288316" to="3959310911" priority="1" type="highway.cycleway" numLanes="1" speed="8.33" width="1.00" allow="bicycle"/>
    <edge id="-392747174#1" from="3959310912" to="975288316" priority="1" type="highway.cycleway" numLanes="1" speed="8.33" width="1.00" allow="bicycle"/>
    <edge id="-392748758#0" from="2275120558" to="3959310912" priority="1" type="highway.cycleway" numLanes="1" speed="8.33" width="1.00" allow="bicycle"/>
    <edge id="-392748758#1" from="3959332304" to="2275120558" priority="1" type="highway.cycleway" numLanes="1" speed="8.33" width="1.00" allow="bicycle"/>