<?xml version="1.0" encoding="UTF-8"?>

<!-- generated on Wed Dec 12 17:44:41 2018 by Eclipse SUMO duarouter Version 60efd76
<configuration xmlns:xsi="http://www.w3.org/2001/XMLSchema-instance" xsi:noNamespaceSchemaLocation="http://sumo.dlr.de/xsd/duarouterConfiguration.xsd">

    <input>
        <net-file value="trento.net.xml"/>
        <route-files value="trips.trips.xml"/>
    </input>

    <output>
        <output-file value="trento.rou.xml"/>
        <alternatives-output value="trento.rou.alt.xml"/>
    </output>

    <processing>
        <ignore-errors value="true"/>
    </processing>

    <time>
        <begin value="0"/>
        <end value="3600"/>
    </time>

    <report>
        <no-warnings value="true"/>
        <no-step-log value="true"/>
    </report>

</configuration>
-->

<routes xmlns:xsi="http://www.w3.org/2001/XMLSchema-instance" xsi:noNamespaceSchemaLocation="http://sumo.dlr.de/xsd/routes_file.xsd">
    <vehicle id="route3" depart="3.00">
        <route edges="24771362#2 43760621#0 43760621#1 43760621#2 43760621#3 43760621#4 43760621#5 43760621#6 43760621#7 24909193#0 24909193#1 24909193#2 24909193#3"/>
    </vehicle>
    <vehicle id="route4" depart="4.00">
        <route edges="97111251#2 97111251#3 97111251#4 68286129#0 68286129#1 240092039#0 240092039#1 240092039#2 240092039#3 97084819 84690453#0 84690453#1 84690461#0 84690461#1 84690461#2 30076096#0 30076096#1 30076096#2 30076096#3 30076096#4 68286127#0 68286127#1 68286127#2 68286127#3 68286127#4 68286127#5 68286127#6 23800071#0 23800071#1 23800071#2 23800071#3 23800071#4 31301718#0 31301718#1 31301718#2 72847149#0 72847149#1 23066740#0 23066740#1 177180084 198530824 223006673#0 223006673#1 24771360#0 24771360#1 24771360#2 24771360#3"/>
    </vehicle>
    <vehicle id="route6" depart="6.00">
        <route edges="24771369#0 -24771369#0 155428150#0 155428150#1 24789912#1 24789912#2 84690459 222680363 84690448#0 84690448#1 35209300 97121841#0 97121841#1 97121841#2 97121841#3 24771362#0"/>
    </vehicle>
    <vehicle id="route7" depart="7.00">
        <route edges="30076096#1 30076096#2 30076096#3 30076096#4 68286127#0 68286127#1 68286127#2 68286127#3 68286127#4 68286127#5 68286127#6 23800071#0 23800071#1 23800071#2 23800071#3 23800071#4 31301718#0 31301718#1 31301718#2 72847149#0 72847149#1 23066740#0 23066740#1 177180084 198530824 223006673#0 223006673#1 24771360#0 24771360#1 24771360#2 24771360#3 24802988#0 24802988#1 24802988#2 24802988#3 24802988#4 24802988#5 24802988#6 24802988#7 24802988#8 24802988#9 24802988#10 24802988#11 68286129#0 68286129#1 240092039#0 240092039#1 240092039#2 240092039#3 97084819 23857969#0 23857969#1 -24805442#2 -24805442#1 -24805442#0 -155428148#1 -155428148#0 -24771369#2 24771369#2"/>
    </vehicle>
    <vehicle id="route9" depart="9.00">
        <route edges="23952132#5 223006226 23800071#0 23800071#1 23800071#2 23800071#3 23800071#4 31301718#0 31301718#1 31301718#2 72847149#0 72847149#1 23066740#0 23066740#1 177180084 198530824 223006673#0 223006673#1 24771360#0 24771360#1 24771360#2 24771360#3"/>
    </vehicle>
    <vehicle id="route10" depart="10.00">
        <route edges="223006226 23800071#0 23800071#1 23800071#2 23800071#3 23800071#4 31301718#0 31301718#1 31301718#2 72847149#0 72847149#1 23066740#0 23066740#1 177180084 198530824 223006673#0 223006673#1 24771360#0 24771360#1 24771360#2 24771360#3 43760621#0 43760621#1 43760621#2 43760621#3 43760621#4 43760621#5 43760621#6 43760621#7 24909193#0 24909193#1 24909193#2 24909193#3 24909193#4 68286127#0"/>
    </vehicle>
    <vehicle id="route13" depart="13.00">
        <route edges="32359806#0 32359806#1 474153110 372798159#1 372798159#2 372798159#3 23794856 141265569 110057082#0 110057082#1 110057082#2"/>
    </vehicle>
    <vehicle id="route16" depart="16.00">
        <route edges="43760621#6 43760621#7 27742894#0 27742894#1 97251510#0 97251510#1 97251510#2 97111251#0 97111251#1 97111251#2 97111251#3 97111251#4 68286129#0 68286129#1 240092039#0 240092039#1 240092039#2 240092039#3 97084819 23857969#0 23857969#1 -24805442#2 -24805442#1 -24805442#0"/>
    </vehicle>
    <vehicle id="route18" depart="18.00">
        <route edges="43760621#7 27742894#0 27742894#1 97251510#0 97251510#1 97251510#2 97111251#0 97111251#1 97111251#2 97111251#3 97111251#4 68286129#0 68286129#1 240092039#0 240092039#1 240092039#2 240092039#3 84690452#0 84690452#1 84690452#2"/>
    </vehicle>
    <vehicle id="route20" depart="20.00">
        <route edges="34663493#3 74502611#0 74502611#1 74502611#2 24771362#0 24771362#1 24771362#2 24802988#0 24802988#1 24802988#2 24802988#3 24802988#4 24802988#5 24802988#6 24802988#7 24802988#8 24802988#9 24802988#10 24802988#11 68286129#0 68286129#1 240092039#0 240092039#1 240092039#2 240092039#3 97084819 84690453#0 84690453#1 84690461#0 84690461#1 84690461#2 30076096#0"/>
    </vehicle>
    <vehicle id="route21" depart="21.00">
        <route edges="23952132#1 23952132#2 23952132#3 23952132#4 23952132#5 223006226 23800071#0 23800071#1 23800071#2 23800071#3 23800071#4 31301718#0 31301718#1 31301718#2 72847149#0 72847149#1 23066740#0 23066740#1 177180084 198530824 223006673#0 223006673#1 24771360#0 24771360#1 24771360#2 24771360#3 24802988#0 24802988#1 24802988#2 24802988#3 24802988#4 24802988#5 24802988#6 24802988#7 24802988#8 24802988#9 24802988#10 24802988#11 68286129#0 68286129#1 240092039#0 240092039#1 240092039#2 240092039#3 97084819"/>
    </vehicle>
    <vehicle id="route22" depart="22.00">
        <route edges="23951806#0"/>
    </vehicle>
    <vehicle id="route23" depart="23.00">
        <route edges="24789912#2 84690459 240607362 240092040#0 240092040#1 240092040#2 84690453#0 84690453#1 84690454#0 84690454#1 86060253#0 86060253#1 86060253#2 75356279#0 75356279#1 240092039#0 87029737#0 87029737#1"/>
    </vehicle>
    <vehicle id="route27" depart="27.00">
        <route edges="24581835#1 24581835#2 -155428148#1 -155428148#0 -24771369#2 -24771369#1 -24771369#0 155428150#0 155428150#1 24789912#1 24789912#2 84690459 240607362 240092040#0 240092040#1 240092040#2 84690453#0 84690453#1 84690454#0 84690454#1 86060253#0 86060253#1 86060253#2 75356279#0 75356279#1"/>
    </vehicle>
    <vehicle id="route28" depart="28.00">
        <route edges="23066966#0 23066966#1 75417888 34663493#0 34663493#1 34663493#2 34663493#3 74502611#0 74502611#1 74502611#2 24771362#0 24771362#1 24771362#2 24802988#0 24802988#1 24802988#2 24802988#3 24802988#4 24802988#5 24802988#6 24802988#7 24802988#8 24802988#9 24802988#10 24802988#11 68286129#0 68286129#1 240092039#0 87029737#0 87029737#1 86060253#2 86060253#3"/>
    </vehicle>
    <vehicle id="route29" depart="29.00">
        <route edges="240092041#0 240092041#1 240092041#2 240092041#3 30076096#0 30076096#1 30076096#2 30076096#3 30076096#4 68286127#0 68286127#1 68286127#2 68286127#3 68286127#4 68286127#5 68286127#6 23800071#0 23800071#1 23800071#2 23800071#3 23800071#4 31301718#0 31301718#1 31301718#2 72847149#0 72847149#1 23066740#0 23066740#1 177180084 198530824 223006673#0 223006673#1 24917678#0 24917678#1 198530825#0 198530825#1 24917649#0"/>
    </vehicle>
    <vehicle id="route30" depart="30.00">
        <route edges="-155428148#0 -24771369#2 -24771369#1 -24771369#0 155428150#0 155428150#1 24789912#1 24789912#2 84690459 240607362 240092040#0 240092040#1 240092040#2 84690453#0 84690453#1 84690454#0 84690454#1 86060253#0 86060253#1 86060253#2 86060253#3 86060253#4 97111251#2 97111251#3 97111251#4 68286129#0"/>
    </vehicle>
    <vehicle id="route32" depart="32.00">
        <route edges="-24805442#2 -24805442#1 -24805442#0 -155428148#1 -155428148#0 -24771369#2 -24771369#1 -24771369#0 155428150#0 155428150#1 24789912#1 24789912#2 84690459 222680363 84690448#0 84690448#1 35209300 97121841#0 97121841#1 97121841#2 97121841#3 24771362#0 24771362#1 24771362#2 24802988#0 24802988#1 24802988#2 24802988#3 24802988#4 24802988#5 24802988#6 24802988#7 24802988#8 24802988#9"/>
    </vehicle>
    <vehicle id="route33" depart="33.00">
        <route edges="68286127#3 68286127#4 68286127#5 68286127#6 23800071#0 23800071#1 23800071#2 23800071#3 23800071#4 31301718#0 31301718#1 31301718#2 72847149#0 72847149#1 23066740#0 23066740#1 177180084 198530824 223006673#0 223006673#1 24771360#0 24771360#1 24771360#2 24771360#3 24802988#0 24802988#1 24802988#2 24802988#3 24802988#4 24802988#5 24802988#6 24802988#7 24802988#8 24802988#9 24802988#10 24802988#11 68286129#0 68286129#1 240092039#0 240092039#1 240092039#2 240092039#3 97084819 84690453#0 84690453#1 84690461#0 84690461#1 84690461#2 37956147#0"/>
    </vehicle>
    <vehicle id="route34" depart="34.00">
        <route edges="75417888 34663493#0 34663493#1 34663493#2 34663493#3 74502611#0 74502611#1 74502611#2 24771362#0 24771362#1 24771362#2 24802988#0 24802988#1 24802988#2 24802988#3 24802988#4 24802988#5 24802988#6 24802988#7 24802988#8 24802988#9 24802988#10 24802988#11 68286129#0 68286129#1 240092039#0 240092039#1 240092039#2 240092039#3 97084819 84690453#0 84690453#1 84690461#0"/>
    </vehicle>
    <vehicle id="route35" depart="35.00">
        <route edges="97111251#3 97111251#4 68286129#0 68286129#1"/>
    </vehicle>
    <vehicle id="route40" depart="40.00">
        <route edges="24771362#1 24771362#2 43760621#0 43760621#1 43760621#2 43760621#3"/>
    </vehicle>
    <vehicle id="route42" depart="42.00">
        <route edges="-23951767#2 23951767#2 23951767#3 393170561#0 393170561#1 393170561#2 25578800"/>
    </vehicle>
    <vehicle id="route43" depart="43.00">
        <route edges="23066740#0 23066740#1 177180084 198530824 223006673#0 223006673#1 24771360#0 24771360#1 24771360#2 24771360#3 43760621#0 43760621#1 43760621#2 43760621#3 43760621#4 43760621#5 43760621#6 43760621#7 24909193#0 24909193#1 24909193#2 24909193#3 24909193#4 68286127#0 68286127#1 68286127#2 68286127#3 68286127#4 68286127#5 68286127#6 23800071#0 23800071#1 23800071#2 23800071#3 23800071#4 31301718#0 31301718#1"/>
    </vehicle>
    <vehicle id="route45" depart="45.00">
        <route edges="23857969#1 -24805442#2 -24805442#1 -24805442#0 -155428148#1 -155428148#0 -24771369#2 -24771369#1 -24771369#0 155428150#0 155428150#1 24789912#1 24789912#2 84690459 222680363 84690448#0 84690448#1 35209300"/>
    </vehicle>
    <vehicle id="route47" depart="47.00">
        <route edges="-84690461#0 84690461#0 84690461#1 84690461#2 30076096#0 30076096#1 30076096#2 30076096#3 30076096#4 68286127#0 68286127#1 68286127#2 68286127#3 68286127#4 68286127#5 68286127#6 23800071#0 23800071#1 23800071#2 23800071#3 23800071#4 31301718#0 31301718#1 31301718#2 72847149#0 72847149#1 23066740#0 23066740#1 177180084 198530824 223006673#0"/>
    </vehicle>
    <vehicle id="route48" depart="48.00">
        <route edges="23952132#5 223006226 23800071#0 23800071#1 23800071#2 23800071#3 23800071#4 31301718#0 31301718#1 31301718#2 72847149#0 72847149#1 23066740#0 23066740#1 177180084 198530824 223006673#0 223006673#1 24917678#0"/>
    </vehicle>
    <vehicle id="route51" depart="51.00">
        <route edges="43760621#5 43760621#6 43760621#7 24909193#0 24909193#1 24909193#2 24909193#3 24909193#4 68286127#0 68286127#1 68286127#2 68286127#3 68286127#4 68286127#5 68286127#6 23800071#0 23800071#1 23800071#2 23800071#3 23800071#4 31301718#0 31301718#1 31301718#2 72847149#0 72847149#1 23066740#0 23066740#1 177180084 198530824 223006673#0 223006673#1 24771360#0 24771360#1 24771360#2 24771360#3 43760621#0 43760621#1 43760621#2"/>
    </vehicle>
    <vehicle id="route52" depart="52.00">
        <route edges="24802988#9 24802988#10 24802988#11 68286129#0 68286129#1 240092039#0 240092039#1 240092039#2 240092039#3 84690452#0 84690452#1 84690452#2 240092038 84690455 24789912#0 24789912#1 24789912#2 84690459 240607362 240092040#0 240092040#1"/>
    </vehicle>
    <vehicle id="route54" depart="54.00">
        <route edges="97121841#2 97121841#3 24771362#0 24771362#1 24771362#2 24802988#0 24802988#1 24802988#2 24802988#3 24802988#4 24802988#5 24802988#6 24802988#7 24802988#8 24802988#9 24802988#10 24802988#11 68286129#0 68286129#1 240092039#0 240092039#1 240092039#2 240092039#3 84690452#0 84690452#1 84690452#2 240092038 84690455 -35209301#1 -35209301#0"/>
    </vehicle>
    <vehicle id="route55" depart="55.00">
        <route edges="-228044902 -228044900 -24805443#1 -24805443#0 24581835#1 24581835#2 -155428148#1 -155428148#0 -24771369#2 -24771369#1"/>
    </vehicle>
    <vehicle id="route57" depart="57.00">
        <route edges="68286127#0 68286127#1 68286127#2 68286127#3 68286127#4 68286127#5 68286127#6 23800071#0 23800071#1 23800071#2 23800071#3 23800071#4 31301718#0 31301718#1 31301718#2 72847149#0 72847149#1 23066740#0 23066740#1 177180084 198530824 223006673#0 223006673#1 24917678#0 24917678#1 23763916 122602437"/>
    </vehicle>
    <vehicle id="route58" depart="58.00">
        <route edges="30076096#3 30076096#4 68286127#0 68286127#1 68286127#2 68286127#3 68286127#4 68286127#5 68286127#6 23800071#0 23800071#1 23800071#2 23800071#3 23800071#4 31301718#0 31301718#1 31301718#2 72847149#0 72847149#1 23066740#0 23066740#1 177180084 198530824 223006673#0 223006673#1 24771360#0 24771360#1 24771360#2 24771360#3 43760621#0 43760621#1"/>
    </vehicle>
    <vehicle id="route60" depart="60.00">
        <route edges="24909193#4 68286127#0 68286127#1 68286127#2 68286127#3 68286127#4 68286127#5 68286127#6 23800071#0 23800071#1 23800071#2 23800071#3 23800071#4 31301718#0 31301718#1 31301718#2 72847149#0 72847149#1 23066740#0 23066740#1 177180084 198530824 223006673#0 223006673#1 24771360#0 24771360#1 24771360#2 24771360#3 24802988#0 24802988#1 24802988#2 24802988#3 24802988#4 24802988#5 24802988#6 24802988#7 24802988#8 24802988#9 24802988#10 24802988#11 68286129#0 68286129#1 240092039#0 240092039#1 240092039#2 240092039#3 97084819 84690453#0"/>
    </vehicle>
    <vehicle id="route61" depart="61.00">
        <route edges="84690454#2 84690454#3 84690454#4 97084819 84690453#0 84690453#1 84690461#0 84690461#1 84690461#2 30076096#0 30076096#1 30076096#2 30076096#3 30076096#4 68286127#0 68286127#1 68286127#2 68286127#3 68286127#4 68286127#5 68286127#6 23800071#0 23800071#1 23800071#2 23800071#3 23800071#4 31301718#0 31301718#1 31301718#2 72847149#0 72847149#1 23066740#0 23066740#1 177180084 198530824 223006672#0 223006672#1 223006672#2 283010968#0 283010968#1 141265570 32359806#0 32359806#1 474153110 372798159#1 372798159#2"/>
    </vehicle>
    <vehicle id="route63" depart="63.00">
        <route edges="240092039#1 240092039#2 240092039#3 84690452#0 84690452#1 84690452#2 84690448#0 84690448#1 35209300 97121841#0 97121841#1 97121841#2 97121841#3 24771362#0 24771362#1 24771362#2"/>
    </vehicle>
    <vehicle id="route64" depart="64.00">
        <route edges="97251510#1 97251510#2 97111251#0 97111251#1 97111251#2 97111251#3 97111251#4 68286129#0 68286129#1 240092039#0 87029737#0"/>
    </vehicle>
    <vehicle id="route66" depart="66.00">
        <route edges="37956147#5 97111251#0 97111251#1 97111251#2 97111251#3 97111251#4 68286129#0 68286129#1 240092039#0 240092039#1 240092039#2 240092039#3 97084819 84690453#0 84690453#1 84690461#0 84690461#1 84690461#2 30076096#0 30076096#1 30076096#2 30076096#3 30076096#4 68286127#0 68286127#1 68286127#2 68286127#3 68286127#4 68286127#5 68286127#6 23800071#0 23800071#1 23800071#2 23800071#3 23800071#4 31301718#0 31301718#1 31301718#2 72847149#0"/>
    </vehicle>
    <vehicle id="route67" depart="67.00">
        <route edges="24789912#0 24789912#1 24789912#2 84690459 240607362 240092040#0 240092040#1 240092040#2"/>
    </vehicle>
    <vehicle id="route73" depart="73.00">
        <route edges="23952132#2 23952132#3 23952132#4 23952132#5 223006226 23800071#0 23800071#1 23800071#2 23800071#3 23800071#4 31301718#0 31301718#1 31301718#2 72847149#0 72847149#1 23066740#0 23066740#1 177180084 198530824 223006673#0 223006673#1 24771360#0 24771360#1 24771360#2 24771360#3 24802988#0 24802988#1 24802988#2 24802988#3 24802988#4 24802988#5 24802988#6 24802988#7 24802988#8 24802988#9 24802988#10 24802988#11 68286129#0 68286129#1 240092039#0 240092039#1 240092039#2 240092039#3 84690452#0 84690452#1 84690452#2 240092038 84690455 24789912#0 24789912#1"/>
    </vehicle>
    <vehicle id="route75" depart="75.00">
        <route edges="24771362#2 43760621#0 43760621#1 43760621#2 43760621#3 43760621#4 43760621#5 43760621#6 43760621#7 24909193#0 24909193#1 24909193#2 24909193#3 24909193#4 68286127#0 68286127#1 68286127#2 68286127#3 68286127#4 68286127#5 68286127#6 23800071#0 23800071#1 23800071#2 23800071#3 23800071#4 31301718#0 31301718#1 31301718#2 72847149#0 72847149#1 23066740#0 23066740#1 177180084 198530824 223006673#0 223006673#1 24771360#0 24771360#1 24771360#2 24771360#3"/>
    </vehicle>
    <vehicle id="route76" depart="76.00">
        <route edges="24805442#1 -24805442#1 -24805442#0 -155428148#1 -155428148#0 -24771369#2 -24771369#1 -24771369#0 155428150#0 155428150#1 24789912#1 24789912#2 84690459 240607362 240092040#0 240092040#1 240092040#2 84690453#0 84690453#1 84690461#0 84690461#1 84690461#2 30076096#0 30076096#1 30076096#2 30076096#3 30076096#4 68286127#0 68286127#1 68286127#2 68286127#3 68286127#4 68286127#5 68286127#6 23800071#0 23800071#1 23800071#2 23800071#3 23800071#4 31301718#0 31301718#1 31301718#2 72847149#0 72847149#1 23066740#0 23066740#1 177180084 198530824 223006672#0 223006672#1 223006672#2 283010968#0 283010968#1 141265570 177180085 23794856 141265569 110057082#0 110057082#1 110057082#2 110057082#3"/>
    </vehicle>
    <vehicle id="route77" depart="77.00">
        <route edges="-84690461#1 84690461#1 84690461#2 30076096#0 30076096#1 30076096#2 30076096#3 30076096#4 68286127#0 68286127#1 68286127#2 68286127#3 68286127#4 68286127#5 68286127#6 23800071#0 23800071#1 23800071#2 23800071#3 23800071#4 31301718#0 31301718#1 31301718#2 72847149#0 72847149#1 23066740#0 23066740#1 177180084 198530824 223006673#0 223006673#1 24917678#0 24917678#1 23763916 122602437 223001539 23763977"/>
    </vehicle>
    <vehicle id="route79" depart="79.00">
        <route edges="43760621#3 43760621#4 43760621#5 43760621#6 43760621#7 27742894#0 27742894#1 97251510#0 97251510#1 97251510#2 97111251#0 97111251#1 97111251#2 97111251#3 97111251#4 68286129#0 68286129#1 240092039#0 240092039#1 240092039#2 240092039#3 84690452#0 84690452#1 84690452#2 240092038 84690455 -35209301#1"/>
    </vehicle>
    <vehicle id="route81" depart="81.00">
        <route edges="43760621#0 43760621#1 43760621#2 43760621#3 43760621#4 43760621#5 43760621#6 43760621#7 24909193#0 24909193#1 24909193#2 24909193#3 24909193#4 68286127#0 68286127#1 68286127#2 68286127#3 68286127#4 68286127#5 68286127#6 23800071#0 23800071#1 23800071#2 23800071#3 23800071#4 31301718#0 31301718#1 31301718#2 72847149#0 72847149#1 23066740#0 23066740#1 177180084 198530824 223006672#0 223006672#1 223006672#2 283010968#0 283010968#1 141265570 177180085 23794856 141265569 110057082#0 110057082#1 110057082#2 110057082#3 68286128#0"/>
    </vehicle>
    <vehicle id="route84" depart="84.00">
        <route edges="86060253#2 75356279#0 75356279#1 240092039#0 240092039#1 240092039#2 240092039#3 84690452#0 84690452#1 84690452#2 240092038 84690455 24789912#0 -155428150#1"/>
    </vehicle>
    <vehicle id="route86" depart="86.00">
        <route edges="84690454#4 97084819 84690453#0 84690453#1 84690461#0 84690461#1 84690461#2 30076096#0 30076096#1 30076096#2 30076096#3 30076096#4 68286127#0 68286127#1 68286127#2 68286127#3 68286127#4 68286127#5 68286127#6 23800071#0 23800071#1 23800071#2 23800071#3 23800071#4 31301718#0"/>
    </vehicle>
    <vehicle id="route91" depart="91.00">
        <route edges="43760621#3 43760621#4 43760621#5 43760621#6 43760621#7 24909193#0 24909193#1 24909193#2 24909193#3 24909193#4 68286127#0 68286127#1 68286127#2 68286127#3 68286127#4 68286127#5 68286127#6 23800071#0 23800071#1 23800071#2 23800071#3 23800071#4 31301718#0 31301718#1 31301718#2 72847149#0 72847149#1 23066740#0 23066740#1 177180084 198530824 223006673#0 223006673#1 24917678#0 24917678#1 198530825#0"/>
    </vehicle>
    <vehicle id="route93" depart="93.00">
        <route edges="24789912#1 24789912#2 84690459 240607362 240092040#0 240092040#1 240092040#2 84690453#0 84690453#1 84690454#0 84690454#1 86060253#0 86060253#1 86060253#2 86060253#3 86060253#4 97111251#2"/>
    </vehicle>
    <vehicle id="route101" depart="101.00">
        <route edges="240092039#1 240092039#2 240092039#3 84690452#0 84690452#1 84690452#2 240092038"/>
    </vehicle>
    <vehicle id="route108" depart="108.00">
        <route edges="84690459 240607362 240092040#0 240092040#1 240092040#2"/>
    </vehicle>
    <vehicle id="route109" depart="109.00">
        <route edges="24802988#10 24802988#11 68286129#0 68286129#1 240092039#0 240092039#1 240092039#2 240092039#3 97084819 84690453#0 84690453#1 84690461#0 84690461#1 84690461#2 30076096#0 30076096#1 30076096#2 30076096#3 30076096#4 68286127#0 68286127#1 68286127#2 68286127#3 68286127#4 68286127#5 68286127#6 23800071#0 23800071#1 23800071#2 23800071#3 23800071#4 31301718#0 31301718#1 31301718#2 72847149#0 72847149#1 23066740#0 23066740#1 177180084 198530824 223006673#0 223006673#1 24917678#0 24917678#1 23763916 122602437 223001538 24917570"/>
    </vehicle>
    <vehicle id="route117" depart="117.00">
        <route edges="97121841#1 97121841#2 97121841#3 24771362#0 24771362#1 24771362#2 24802988#0 24802988#1 24802988#2 24802988#3 24802988#4 24802988#5 24802988#6 24802988#7 24802988#8 24802988#9 24802988#10 24802988#11 68286129#0 68286129#1 240092039#0 240092039#1 240092039#2 240092039#3 84690452#0"/>
    </vehicle>
    <vehicle id="route118" depart="118.00">
        <route edges="37956149#1 37956149#2 223006672#1 223006672#2 283010968#0 283010968#1 141265570 32359806#0"/>
    </vehicle>
    <vehicle id="route121" depart="121.00">
        <route edges="84690453#0 84690453#1 84690461#0 84690461#1 84690461#2 30076096#0 30076096#1 30076096#2 30076096#3 30076096#4 68286127#0 68286127#1 68286127#2 68286127#3 68286127#4 68286127#5 68286127#6 23800071#0 23800071#1 23800071#2 23800071#3 23800071#4 31301718#0 31301718#1 31301718#2 72847149#0 72847149#1 23066740#0 23066740#1 177180084 198530824 223006673#0 223006673#1 24917678#0 24917678#1 23763916"/>
    </vehicle>
    <vehicle id="route125" depart="125.00">
        <route edges="-24805442#1 -24805442#0 -155428148#1 -155428148#0 -24771369#2 -24771369#1 -24771369#0 155428150#0 155428150#1 24789912#1 24789912#2 84690459 222680363 240092038 84690455"/>
    </vehicle>
    <vehicle id="route127" depart="127.00">
        <route edges="24802988#10 24802988#11 68286129#0 68286129#1 240092039#0 240092039#1 240092039#2 240092039#3 84690452#0 84690452#1 84690452#2 84690448#0 84690448#1 35209298#0"/>
    </vehicle>
    <vehicle id="route128" depart="128.00">
        <route edges="-24771369#1 -24771369#0 155428150#0 155428150#1 24789912#1 24789912#2 84690459 240607362 240092040#0 240092040#1 240092040#2 84690453#0 84690453#1 84690461#0 84690461#1 84690461#2 30076096#0 30076096#1 30076096#2 30076096#3 30076096#4 68286127#0 68286127#1 68286127#2 68286127#3 68286127#4 68286127#5 68286127#6 23800071#0 23800071#1 23800071#2 23800071#3 23800071#4 31301718#0 31301718#1 31301718#2 72847149#0 72847149#1 23066740#0 23066740#1 177180084 198530824 223006673#0 223006673#1 24917678#0 24917678#1 23763916 122602437 223001538 23763968#0"/>
    </vehicle>
    <vehicle id="route129" depart="129.00">
        <route edges="87029737#1 86060253#2 75356279#0 75356279#1 240092039#0 240092039#1 240092039#2 240092039#3 84690452#0 84690452#1 84690452#2 84690448#0 84690448#1 35209300"/>
    </vehicle>
    <vehicle id="route133" depart="133.00">
        <route edges="-84690461#2 84690461#2 30076096#0 30076096#1 30076096#2 30076096#3 30076096#4 68286127#0 68286127#1 68286127#2 68286127#3 68286127#4 68286127#5 68286127#6 23800071#0 23800071#1 23800071#2 23800071#3 23800071#4 31301718#0 31301718#1 31301718#2 72847149#0 72847149#1 23066740#0 23066740#1 177180084 23066741#0 23066741#1 37956149#0 37956149#1"/>
    </vehicle>
    <vehicle id="route136" depart="136.00">
        <route edges="34663493#2 34663493#3 74502611#0 74502611#1 74502611#2 24771362#0 24771362#1"/>
    </vehicle>
    <vehicle id="route137" depart="137.00">
        <route edges="27742894#1 97251510#0 97251510#1 97251510#2 97111251#0 97111251#1 97111251#2 97111251#3 97111251#4 68286129#0 68286129#1 240092039#0 240092039#1 240092039#2 240092039#3 97084819 84690453#0 84690453#1 84690461#0 84690461#1 84690461#2 30076096#0 30076096#1 30076096#2 30076096#3 30076096#4 68286127#0 68286127#1 68286127#2 68286127#3 68286127#4 68286127#5 68286127#6 23800071#0 23800071#1 23800071#2 23800071#3 23800071#4 31301718#0 31301718#1 31301718#2 72847149#0 72847149#1 23066740#0 23066740#1 177180084 198530824 223006672#0"/>
    </vehicle>
    <vehicle id="route139" depart="139.00">
        <route edges="198530824 223006673#0 223006673#1 24771360#0 24771360#1 24771360#2 24771360#3 24802988#0 24802988#1 24802988#2 24802988#3 24802988#4 24802988#5 24802988#6 24802988#7 24802988#8 24802988#9 24802988#10 24802988#11 68286129#0 68286129#1 240092039#0 240092039#1 240092039#2 240092039#3 84690452#0 84690452#1 84690452#2 240092038 84690455 -35209301#1 -35209301#0"/>
    </vehicle>
    <vehicle id="route141" depart="141.00">
        <route edges="27742894#0 27742894#1 97251510#0 97251510#1 97251510#2 97111251#0 97111251#1 97111251#2 97111251#3 97111251#4 68286129#0 68286129#1 240092039#0 240092039#1 240092039#2 240092039#3 97084819 23857969#0 23857969#1 -24805442#2 -24805442#1 -24805442#0 -155428148#1 -155428148#0 -24771369#2"/>
    </vehicle>
    <vehicle id="route142" depart="142.00">
        <route edges="24802988#2 24802988#3"/>
    </vehicle>
    <vehicle id="route143" depart="143.00">
        <route edges="24802988#4 24802988#5 24802988#6 24802988#7 24802988#8 24802988#9 24802988#10 24802988#11 68286129#0 68286129#1 240092039#0 240092039#1 240092039#2 240092039#3 97084819 84690453#0 84690453#1 84690461#0 84690461#1 84690461#2 30076096#0 30076096#1 30076096#2 30076096#3 30076096#4 68286127#0 68286127#1 68286127#2 68286127#3 68286127#4 68286127#5 68286127#6 23800071#0 23800071#1 23800071#2 23800071#3 23800071#4 31301718#0 31301718#1 31301718#2 72847149#0 72847149#1 23066740#0 23066740#1 177180084 198530824 223006672#0 223006672#1 223006672#2 283010968#0 283010968#1 141265570 32359806#0 32359806#1 474153110 372798159#1"/>
    </vehicle>
    <vehicle id="route144" depart="144.00">
        <route edges="23066740#1 177180084 198530824 223006673#0 223006673#1 24771360#0 24771360#1 24771360#2 24771360#3 43760621#0 43760621#1 43760621#2 43760621#3 43760621#4 43760621#5 43760621#6 43760621#7 24909193#0 24909193#1 24909193#2 24909193#3 24909193#4 68286127#0 68286127#1 68286127#2 68286127#3 68286127#4 68286127#5 68286127#6 23800071#0 23800071#1 23800071#2 23800071#3 23800071#4"/>
    </vehicle>
    <vehicle id="route145" depart="145.00">
        <route edges="31301718#2 72847149#0 72847149#1 23066740#0 23066740#1 177180084 198530824 223006673#0 223006673#1 24771360#0 24771360#1 24771360#2 24771360#3 24802988#0 24802988#1 24802988#2 24802988#3 24802988#4 24802988#5 24802988#6 24802988#7 24802988#8 24802988#9 24802988#10 24802988#11 68286129#0 68286129#1 240092039#0 240092039#1 240092039#2 240092039#3 84690452#0"/>
    </vehicle>
    <vehicle id="route147" depart="147.00">
        <route edges="24581835#2 -155428148#1 -155428148#0 -24771369#2 -24771369#1 -24771369#0 155428150#0 155428150#1 24789912#1 24789912#2 84690459 222680363 84690448#0 84690448#1 35209300 97121841#0 97121841#1 97121841#2 97121841#3 24771362#0 24771362#1 24771362#2 24802988#0 24802988#1 24802988#2 24802988#3 24802988#4 24802988#5 24802988#6 24802988#7 24802988#8 24802988#9 24802988#10"/>
    </vehicle>
    <vehicle id="route149" depart="149.00">
        <route edges="24771362#2 43760621#0 43760621#1 43760621#2 43760621#3 43760621#4 43760621#5 43760621#6 43760621#7 24909193#0 24909193#1 24909193#2 24909193#3 24909193#4 68286127#0 68286127#1 68286127#2 68286127#3 68286127#4 68286127#5 68286127#6 23800071#0 23800071#1 23800071#2 23800071#3 23800071#4 31301718#0 31301718#1 31301718#2 72847149#0 72847149#1 23066740#0 23066740#1 177180084 198530824 223006672#0 223006672#1 223006672#2 283010968#0 283010968#1 141265570 -141265570"/>
    </vehicle>
    <vehicle id="route150" depart="150.00">
        <route edges="37956147#2 37956147#3 37956147#4 37956147#5 97111251#0 97111251#1 97111251#2 97111251#3 97111251#4 68286129#0 68286129#1 240092039#0 240092039#1 240092039#2 240092039#3 97084819 84690453#0 84690453#1 84690454#0 84690454#1 84690454#2 84690454#3 84690454#4"/>
    </vehicle>
    <vehicle id="route151" depart="151.00">
        <route edges="87029737#1 86060253#2 75356279#0 75356279#1 240092039#0"/>
    </vehicle>
    <vehicle id="route153" depart="153.00">
        <route edges="84690452#2 240092038 84690455 24789912#0 24789912#1 24789912#2 84690459 240607362 240092040#0 240092040#1 240092040#2 84690453#0 84690453#1 84690461#0 84690461#1 84690461#2 30076096#0 30076096#1 30076096#2 30076096#3 30076096#4 68286127#0 68286127#1 68286127#2 68286127#3 68286127#4 68286127#5 68286127#6 23800071#0 23800071#1 23800071#2 23800071#3 23800071#4 31301718#0 31301718#1"/>
    </vehicle>
    <vehicle id="route154" depart="154.00">
        <route edges="24802988#3 24802988#4 24802988#5 24802988#6 24802988#7 24802988#8 24802988#9 24802988#10 24802988#11 68286129#0 68286129#1 240092039#0 240092039#1 240092039#2 240092039#3 97084819 84690453#0 84690453#1 84690461#0 84690461#1 84690461#2 30076096#0 30076096#1 30076096#2 30076096#3 30076096#4 68286127#0 68286127#1"/>
    </vehicle>
    <vehicle id="route159" depart="159.00">