<?xml version="1.0" encoding="UTF-8"?>

<!-- generated on Thu Dec 13 14:40:10 2018 by Eclipse SUMO duarouter Version 60efd76
<configuration xmlns:xsi="http://www.w3.org/2001/XMLSchema-instance" xsi:noNamespaceSchemaLocation="http://sumo.dlr.de/xsd/duarouterConfiguration.xsd">

    <input>
        <net-file value="trento.net.xml"/>
        <route-files value="trips.trips.xml"/>
    </input>

    <output>
        <output-file value="trento_15.rou.xml"/>
        <alternatives-output value="trento_15.rou.alt.xml"/>
    </output>

    <processing>
        <ignore-errors value="true"/>
    </processing>

    <time>
        <begin value="0"/>
        <end value="3600"/>
    </time>

    <report>
        <no-warnings value="true"/>
        <no-step-log value="true"/>
    </report>

</configuration>
-->

<routes xmlns:xsi="http://www.w3.org/2001/XMLSchema-instance" xsi:noNamespaceSchemaLocation="http://sumo.dlr.de/xsd/routes_file.xsd">
    <vehicle id="route4" depart="20.00">
        <route edges="24771362#1 24771362#2 43760621#0 43760621#1 43760621#2 43760621#3 43760621#4 43760621#5 43760621#6 43760621#7 24909193#0 24909193#1 24909193#2 24909193#3 24909193#4 68286127#0 68286127#1 68286127#2 68286127#3 68286127#4 68286127#5 68286127#6 23800071#0 23800071#1 23800071#2 23800071#3 23800071#4 31301718#0 31301718#1 31301718#2 72847149#0 72847149#1 23066740#0 23066740#1 177180084 198530824 223006672#0 223006672#1 223006672#2 283010968#0 283010968#1 141265570 177180085 23794856"/>
    </vehicle>
    <vehicle id="route6" depart="30.00">
        <route edges="23794856 141265569 110057082#0 110057082#1 110057082#2 110057082#3 68286128#0 68286128#1 68286131#0 68286131#1"/>
    </vehicle>
    <vehicle id="route7" depart="35.00">
        <route edges="24802988#9 24802988#10 24802988#11 68286129#0 68286129#1 240092039#0 240092039#1 240092039#2 240092039#3 97084819 84690453#0 84690453#1 84690461#0 84690461#1 84690461#2 30076096#0 30076096#1 30076096#2 30076096#3 30076096#4 68286127#0 68286127#1 68286127#2 68286127#3 68286127#4 68286127#5 68286127#6 23800071#0 23800071#1 23800071#2 23800071#3 23800071#4 31301718#0 31301718#1 31301718#2 72847149#0 72847149#1 23066740#0 23066740#1 177180084 198530824 223006673#0 223006673#1 24771360#0 24771360#1 24771360#2 24771360#3 43760621#0 43760621#1 43760621#2 43760621#3 43760621#4 43760621#5 43760621#6 43760621#7 24909193#0 24909193#1 24909193#2 24909193#3"/>
    </vehicle>
    <vehicle id="route8" depart="40.00">
        <route edges="68286127#2 68286127#3 68286127#4 68286127#5 68286127#6 23800071#0 23800071#1 23800071#2 23800071#3 23800071#4 31301718#0 31301718#1 31301718#2 72847149#0 72847149#1 23066740#0 23066740#1 177180084 23066741#0 23066741#1 37956149#0 37956149#1"/>
    </vehicle>
    <vehicle id="route9" depart="45.00">
        <route edges="68286127#6 23800071#0 23800071#1 23800071#2 23800071#3 23800071#4 31301718#0 31301718#1 31301718#2 72847149#0 72847149#1 23066740#0 23066740#1 177180084 198530824 223006673#0 223006673#1 24771360#0 24771360#1 24771360#2 24771360#3 43760621#0 43760621#1 43760621#2 43760621#3 43760621#4 43760621#5 43760621#6 43760621#7 24909193#0 24909193#1 24909193#2 24909193#3 24909193#4 68286127#0 68286127#1 68286127#2 68286127#3 68286127#4 68286127#5"/>
    </vehicle>
    <vehicle id="route10" depart="50.00">
        <route edges="23066966#1 75417888 34663493#0 34663493#1 34663493#2 34663493#3 74502611#0 74502611#1 74502611#2 24771362#0 24771362#1 24771362#2 43760621#0 43760621#1 43760621#2 43760621#3 43760621#4 43760621#5 43760621#6 43760621#7 24909193#0 24909193#1 24909193#2 24909193#3 24909193#4 68286127#0 68286127#1 68286127#2 68286127#3 68286127#4 68286127#5 68286127#6 23800071#0 23800071#1"/>
    </vehicle>
    <vehicle id="route12" depart="60.00">
        <route edges="30076096#4 68286127#0 68286127#1 68286127#2 68286127#3 68286127#4 68286127#5 68286127#6 23800071#0 23800071#1 23800071#2 23800071#3 23800071#4 31301718#0 31301718#1 31301718#2 72847149#0 72847149#1 23066740#0 23066740#1 177180084 198530824 223006673#0 223006673#1 24771360#0 24771360#1 24771360#2 24771360#3 43760621#0 43760621#1 43760621#2 43760621#3 43760621#4 43760621#5 43760621#6 43760621#7 27742894#0"/>
    </vehicle>
    <vehicle id="route13" depart="65.00">
        <route edges="87029737#1 86060253#2 75356279#0 75356279#1 240092039#0 240092039#1 240092039#2 240092039#3 84690452#0 84690452#1 84690452#2 240092038 84690455 24789912#0"/>
    </vehicle>
    <vehicle id="route16" depart="80.00">
        <route edges="68286127#6 23800071#0 23800071#1 23800071#2 23800071#3 23800071#4 31301718#0 31301718#1 31301718#2 72847149#0 72847149#1 23066740#0 23066740#1 177180084 198530824 223006673#0 223006673#1 24917678#0 24917678#1 23763916 122602437"/>
    </vehicle>
    <vehicle id="route17" depart="85.00">
        <route edges="86060253#4 97111251#2 97111251#3 97111251#4 68286129#0 68286129#1 240092039#0 240092039#1 240092039#2 240092039#3 97084819 84690453#0 84690453#1 84690461#0 84690461#1 84690461#2 30076096#0 30076096#1 30076096#2 30076096#3 30076096#4 68286127#0 68286127#1 68286127#2 68286127#3 68286127#4 68286127#5 68286127#6 23800071#0 23800071#1 23800071#2 23800071#3 23800071#4 31301718#0 31301718#1 31301718#2 72847149#0 72847149#1 23066740#0 23066740#1 177180084 23066741#0 23066741#1"/>
    </vehicle>
    <vehicle id="route21" depart="105.00">
        <route edges="31301718#2 72847149#0 72847149#1 23066740#0 23066740#1 177180084 198530824 223006672#0"/>
    </vehicle>
    <vehicle id="route28" depart="140.00">
        <route edges="97111251#2 97111251#3 97111251#4 68286129#0 68286129#1 240092039#0 240092039#1 240092039#2 240092039#3 97084819 23857969#0"/>
    </vehicle>
    <vehicle id="route29" depart="145.00">
        <route edges="86060253#2 75356279#0 75356279#1 240092039#0 240092039#1 240092039#2"/>
    </vehicle>
    <vehicle id="route30" depart="150.00">
        <route edges="75417888 34663493#0 34663493#1 34663493#2 34663493#3 74502611#0 74502611#1 74502611#2 24771362#0 24771362#1 24771362#2 24802988#0 24802988#1 24802988#2 24802988#3 24802988#4 24802988#5 24802988#6 24802988#7 24802988#8 24802988#9 24802988#10 24802988#11 68286129#0 68286129#1 240092039#0"/>
    </vehicle>
    <vehicle id="route34" depart="170.00">
        <route edges="240092041#0 240092041#1 240092041#2 240092041#3 30076096#0 30076096#1 30076096#2 30076096#3 30076096#4 68286127#0 68286127#1 68286127#2 68286127#3 68286127#4 68286127#5 68286127#6 23800071#0 23800071#1 23800071#2 23800071#3 23800071#4 31301718#0 31301718#1 31301718#2 72847149#0 72847149#1 23066740#0 23066740#1 177180084 198530824 223006673#0 223006673#1 24917678#0 24917678#1 23763916 122602437 223001538 24917570 78785835 78785864#0 -24917590#0"/>
    </vehicle>
    <vehicle id="route37" depart="185.00">
        <route edges="23066966#1 75417888 34663493#0 34663493#1 34663493#2 34663493#3 74502611#0 74502611#1 74502611#2 24771362#0 24771362#1 24771362#2 43760621#0 43760621#1 43760621#2 43760621#3 43760621#4 43760621#5 43760621#6 43760621#7 24909193#0 24909193#1 24909193#2 24909193#3 24909193#4 68286127#0 68286127#1 68286127#2 68286127#3 68286127#4 68286127#5 68286127#6 23800071#0 23800071#1 23800071#2 23800071#3 23800071#4 31301718#0 31301718#1 31301718#2"/>
    </vehicle>
    <vehicle id="route38" depart="190.00">
        <route edges="78785835 78785864#0 24917590#1"/>
    </vehicle>
    <vehicle id="route39" depart="195.00">
        <route edges="97111251#1 97111251#2 97111251#3 97111251#4 68286129#0 68286129#1"/>
    </vehicle>
    <vehicle id="route40" depart="200.00">
        <route edges="27742894#1 97251510#0 97251510#1 97251510#2 97111251#0 97111251#1 97111251#2 97111251#3 97111251#4 68286129#0 68286129#1 240092039#0 240092039#1 240092039#2 240092039#3 84690452#0 84690452#1 84690452#2 84690448#0 84690448#1 35209300 97121841#0 97121841#1 97121841#2 97121841#3 24771362#0 24771362#1"/>
    </vehicle>
    <vehicle id="route41" depart="205.00">
        <route edges="24802988#6 24802988#7 24802988#8 24802988#9 24802988#10 24802988#11 68286129#0 68286129#1 240092039#0 240092039#1 240092039#2 240092039#3 97084819 84690453#0 84690453#1 84690461#0 84690461#1 84690461#2 30076096#0 30076096#1 30076096#2 30076096#3 30076096#4 68286127#0 68286127#1 68286127#2 68286127#3 68286127#4 68286127#5 68286127#6 23800071#0 23800071#1 23800071#2 23800071#3 23800071#4 31301718#0 31301718#1 31301718#2 72847149#0 72847149#1 23066740#0 23066740#1 177180084 198530824 223006672#0 223006672#1 223006672#2 283010968#0 283010968#1 141265570 177180085 23794856 141265569"/>
    </vehicle>
    <vehicle id="route42" depart="210.00">
        <route edges="24581835#2 -155428148#1 -155428148#0 -24771369#2 -24771369#1 -24771369#0 155428150#0 155428150#1 24789912#1 24789912#2 84690459 222680363 240092038 84690455 24789912#0"/>
    </vehicle>
    <vehicle id="route46" depart="230.00">
        <route edges="24771362#0 24771362#1 24771362#2 24802988#0 24802988#1 24802988#2 24802988#3 24802988#4 24802988#5 24802988#6 24802988#7 24802988#8 24802988#9 24802988#10 24802988#11 68286129#0 68286129#1 240092039#0 240092039#1 240092039#2 240092039#3 97084819 23857969#0 23857969#1 -24805442#2 -24805442#1 -24805442#0 -155428148#1"/>
    </vehicle>
    <vehicle id="route47" depart="235.00">
        <route edges="155428150#0 155428150#1 24789912#1 24789912#2 84690459 240607362 240092040#0 240092040#1 240092040#2 84690453#0 84690453#1 84690461#0 84690461#1 84690461#2 30076096#0 30076096#1 30076096#2 30076096#3 30076096#4 68286127#0 68286127#1 68286127#2 68286127#3 68286127#4 68286127#5 68286127#6 23800071#0 23800071#1 23800071#2 23800071#3 23800071#4 31301718#0 31301718#1 31301718#2 72847149#0 72847149#1 23066740#0 23066740#1 177180084 198530824 223006673#0 223006673#1 24917678#0 24917678#1 23763916 122602437 223001538 24917570 78785835 78785864#0 24917590#1"/>
    </vehicle>
    <vehicle id="route48" depart="240.00">
        <route edges="27742894#0 27742894#1 97251510#0 97251510#1 97251510#2 97111251#0 97111251#1 97111251#2 97111251#3 97111251#4 68286129#0 68286129#1 240092039#0 240092039#1 240092039#2 240092039#3 97084819 84690453#0 84690453#1 84690461#0 84690461#1 84690461#2 30076096#0 30076096#1 30076096#2 30076096#3 30076096#4 68286127#0 68286127#1 68286127#2 68286127#3 68286127#4 68286127#5 68286127#6 23800071#0 23800071#1 23800071#2 23800071#3 23800071#4 31301718#0 31301718#1 31301718#2 72847149#0 72847149#1 23066740#0 23066740#1 177180084 198530824 223006672#0 223006672#1 223006672#2"/>
    </vehicle>
    <vehicle id="route55" depart="275.00">
        <route edges="24771362#1 24771362#2 24802988#0 24802988#1 24802988#2 24802988#3 24802988#4"/>
    </vehicle>
    <vehicle id="route56" depart="280.00">
        <route edges="24909193#1 24909193#2 24909193#3 24909193#4 68286127#0 68286127#1 68286127#2 68286127#3 68286127#4 68286127#5 68286127#6 23800071#0 23800071#1 23800071#2 23800071#3 23800071#4 31301718#0 31301718#1 31301718#2 72847149#0 72847149#1 23066740#0 23066740#1 177180084 198530824 223006673#0 223006673#1 24771360#0 24771360#1 24771360#2 24771360#3 24802988#0 24802988#1 24802988#2 24802988#3 24802988#4 24802988#5 24802988#6 24802988#7 24802988#8 24802988#9 24802988#10 24802988#11 68286129#0 68286129#1 240092039#0 87029737#0"/>
    </vehicle>
    <vehicle id="route57" depart="285.00">
        <route edges="24771369#0 -24771369#0 155428150#0 155428150#1 24789912#1 24789912#2 84690459 222680363 240092038 84690455 -35209301#1 35209301#1"/>
    </vehicle>
    <vehicle id="route59" depart="295.00">
        <route edges="68286129#1 240092039#0 240092039#1 240092039#2 240092039#3 97084819 84690453#0 84690453#1 84690461#0 84690461#1 84690461#2 30076096#0 30076096#1 30076096#2 30076096#3 30076096#4 68286127#0 68286127#1 68286127#2 68286127#3 68286127#4 68286127#5 68286127#6 23800071#0 23800071#1 23800071#2 23800071#3 23800071#4 31301718#0 31301718#1 31301718#2 72847149#0 72847149#1 23066740#0 23066740#1 177180084 198530824 223006673#0"/>
    </vehicle>
    <vehicle id="route60" depart="300.00">
        <route edges="155428150#0 155428150#1 24789912#1 24789912#2 84690459 240607362 240092040#0 240092040#1 240092040#2 84690453#0 84690453#1 84690461#0 84690461#1 84690461#2 30076096#0 30076096#1 30076096#2 30076096#3 30076096#4 68286127#0 68286127#1 68286127#2 68286127#3 68286127#4 68286127#5 68286127#6 23800071#0 23800071#1 23800071#2 23800071#3 23800071#4 31301718#0 31301718#1 31301718#2 72847149#0 72847149#1 23066740#0 23066740#1 177180084 198530824 223006672#0 223006672#1 223006672#2 283010968#0 283010968#1 141265570 177180085 23794856 141265569 110057082#0 110057082#1 -110057082#1"/>
    </vehicle>
    <vehicle id="route63" depart="315.00">
        <route edges="37956147#0 37956147#1 37956147#2 37956147#3 37956147#4 37956147#5 97111251#0 97111251#1 97111251#2 97111251#3 97111251#4 68286129#0 68286129#1 240092039#0 240092039#1 240092039#2 240092039#3 84690452#0 84690452#1 84690452#2 84690448#0 84690448#1 35209300 97121841#0 97121841#1 97121841#2 97121841#3"/>
    </vehicle>
    <vehicle id="route64" depart="320.00">
        <route edges="84690452#0 84690452#1 84690452#2 240092038 84690455 24789912#0 24789912#1 24789912#2 84690459 240607362 240092040#0 240092040#1 240092040#2 84690453#0 84690453#1 84690454#0 84690454#1"/>
    </vehicle>
    <vehicle id="route66" depart="330.00">
        <route edges="37956147#4 37956147#5 97111251#0 97111251#1 97111251#2 97111251#3 97111251#4 68286129#0 68286129#1 240092039#0 240092039#1 240092039#2 240092039#3 97084819 84690453#0 84690453#1 84690461#0 84690461#1 84690461#2 30076096#0 30076096#1 30076096#2 30076096#3 30076096#4 68286127#0 68286127#1 68286127#2 68286127#3 68286127#4 68286127#5 68286127#6 23800071#0 23800071#1 23800071#2 23800071#3 23800071#4 31301718#0 31301718#1 31301718#2 72847149#0 72847149#1 23066740#0 23066740#1 177180084 198530824 223006672#0 223006672#1 223006672#2 283010968#0 283010968#1 141265570 177180085 23794856 141265569 110057082#0 110057082#1 110057082#2"/>
    </vehicle>
    <vehicle id="route71" depart="355.00">
        <route edges="198530825#1 24917649#0 24917649#1 24917649#2 24917649#3 104171334#0 104171334#1 110057082#0 110057082#1 110057082#2 110057082#3 68286128#0 -68286128#0"/>
    </vehicle>
    <vehicle id="route72" depart="360.00">
        <route edges="84690454#2 84690454#3 84690454#4 97084819 84690453#0 84690453#1 84690454#0"/>
    </vehicle>
    <vehicle id="route74" depart="370.00">
        <route edges="240092040#0 240092040#1 240092040#2 84690453#0 84690453#1 84690461#0 84690461#1 84690461#2 30076096#0 30076096#1 30076096#2 30076096#3 30076096#4 68286127#0 68286127#1 68286127#2 68286127#3 68286127#4 68286127#5 68286127#6 23800071#0 23800071#1 23800071#2 23800071#3 23800071#4 31301718#0 31301718#1 31301718#2 72847149#0 72847149#1 23066740#0 23066740#1 177180084 198530824 223006672#0 223006672#1 223006672#2 283010968#0 283010968#1 141265570 177180085 23794856 141265569 110057082#0 110057082#1 110057082#2 110057082#3 68286128#0 -68286128#0"/>
    </vehicle>
    <vehicle id="route76" depart="380.00">
        <route edges="24917615#2 24917615#3 23763916 122602437 223001538 24917570 78785835 78785864#0 24917590#1 24917590#0"/>
    </vehicle>
    <vehicle id="route77" depart="385.00">
        <route edges="-24805443#1 -24805443#0 24581835#1 24581835#2 -155428148#1 -155428148#0 -24771369#2 -24771369#1 -24771369#0 155428150#0 155428150#1 24789912#1 24789912#2 84690459 240607362 24805440#0"/>
    </vehicle>
    <vehicle id="route81" depart="405.00">
        <route edges="84690461#1 84690461#2 37956147#0 37956147#1 37956147#2"/>
    </vehicle>
    <vehicle id="route83" depart="415.00">
        <route edges="155428150#0 155428150#1 24789912#1 24789912#2 84690459 240607362 240092040#0 240092040#1 240092040#2 84690453#0 84690453#1"/>
    </vehicle>
    <vehicle id="route88" depart="440.00">
        <route edges="24789912#0 24789912#1 24789912#2 84690459 240607362 240092040#0 240092040#1 240092040#2 84690453#0 84690453#1 84690461#0 84690461#1 84690461#2 30076096#0 30076096#1 30076096#2 30076096#3"/>
    </vehicle>
    <vehicle id="route90" depart="450.00">
        <route edges="43760621#1 43760621#2 43760621#3 43760621#4 43760621#5 43760621#6 43760621#7 27742894#0 27742894#1 97251510#0 97251510#1 97251510#2 97111251#0 97111251#1 97111251#2 97111251#3 97111251#4 68286129#0 68286129#1 240092039#0 240092039#1 240092039#2 240092039#3 84690452#0 84690452#1 84690452#2 84690448#0 84690448#1 35209298#0 35209298#1 35209298#2 35209298#3"/>
    </vehicle>
    <vehicle id="route93" depart="465.00">
        <route edges="24095640 239979891 97121841#0 97121841#1 97121841#2 97121841#3 24771362#0 24771362#1 24771362#2 43760621#0 43760621#1 43760621#2 43760621#3 43760621#4 43760621#5 43760621#6 43760621#7 27742894#0 27742894#1 97251510#0 97251510#1 97251510#2 97111251#0"/>
    </vehicle>
    <vehicle id="route95" depart="475.00">
        <route edges="86060253#1 86060253#2 86060253#3 86060253#4 97111251#2 97111251#3"/>
    </vehicle>
    <vehicle id="route96" depart="480.00">
        <route edges="24802988#11 68286129#0 68286129#1 240092039#0 240092039#1 240092039#2 240092039#3 97084819 84690453#0 84690453#1 84690461#0 84690461#1 84690461#2 30076096#0"/>
    </vehicle>
    <vehicle id="route97" depart="485.00">
        <route edges="97121841#1 97121841#2 97121841#3 24771362#0 24771362#1 24771362#2 43760621#0 43760621#1 43760621#2 43760621#3 43760621#4 43760621#5 43760621#6 43760621#7 27742894#0 27742894#1 97251510#0 97251510#1 97251510#2"/>
    </vehicle>
    <vehicle id="route103" depart="515.00">
        <route edges="97251510#1 97251510#2 97111251#0 97111251#1 97111251#2 97111251#3 97111251#4 68286129#0 68286129#1 240092039#0 240092039#1 240092039#2 240092039#3 84690452#0 84690452#1 84690452#2 240092038 84690455 24789912#0 24789912#1 24789912#2 84690459 240607362 240092040#0 240092040#1"/>
    </vehicle>
    <vehicle id="route104" depart="520.00">
        <route edges="31301718#2 72847149#0 72847149#1 23066740#0 23066740#1 177180084 198530824 223006673#0 223006673#1 24917678#0 24917678#1 23763916 122602437 223001538 24917570 78785835 78785864#0 24917590#1 78785864#2"/>
    </vehicle>
    <vehicle id="route108" depart="540.00">
        <route edges="155428148#1 -155428148#1 -155428148#0 -24771369#2 -24771369#1 -24771369#0 155428150#0 155428150#1 24789912#1 24789912#2 84690459 222680363 84690448#0 84690448#1 35209300 97121841#0 97121841#1 97121841#2"/>
    </vehicle>
    <vehicle id="route109" depart="545.00">
        <route edges="30076096#3 30076096#4 68286127#0 68286127#1 68286127#2 68286127#3 68286127#4 68286127#5 68286127#6 23800071#0 23800071#1 23800071#2 23800071#3 23800071#4 31301718#0 31301718#1 31301718#2 72847149#0 72847149#1 23066740#0 23066740#1 177180084 198530824 223006673#0"/>
    </vehicle>
    <vehicle id="route113" depart="565.00">
        <route edges="84690452#2 240092038 84690455 24789912#0 24789912#1 24789912#2 84690459 240607362"/>
    </vehicle>
    <vehicle id="route115" depart="575.00">
        <route edges="23066966#1 75417888 34663493#0 34663493#1 34663493#2 34663493#3 74502611#0 74502611#1 74502611#2 24771362#0 24771362#1 24771362#2 24802988#0 24802988#1 24802988#2 24802988#3 24802988#4 24802988#5 24802988#6 24802988#7 24802988#8 24802988#9 24802988#10 24802988#11 68286129#0 68286129#1 240092039#0 240092039#1 240092039#2 240092039#3 97084819 23857969#0 23857969#1 -24805442#2 -24805442#1"/>
    </vehicle>
    <vehicle id="route117" depart="585.00">
        <route edges="155428150#1 24789912#1 24789912#2 84690459 240607362 240092040#0 240092040#1 240092040#2 84690453#0 84690453#1 84690461#0 84690461#1 84690461#2 30076096#0 30076096#1 30076096#2 30076096#3 30076096#4 68286127#0 68286127#1 68286127#2 68286127#3 68286127#4 68286127#5 68286127#6 23800071#0 23800071#1 23800071#2 23800071#3 23800071#4 31301718#0 31301718#1 31301718#2 72847149#0 72847149#1 23066740#0 23066740#1 177180084 198530824 223006673#0 223006673#1 24917678#0 24917678#1 23763916 122602437 223001538"/>
    </vehicle>
    <vehicle id="route118" depart="590.00">
        <route edges="27742894#0 27742894#1 97251510#0 97251510#1 97251510#2 97111251#0 97111251#1 97111251#2 97111251#3 97111251#4 68286129#0 68286129#1 240092039#0 240092039#1 240092039#2 240092039#3 97084819 84690453#0 84690453#1 84690461#0 84690461#1 84690461#2 37956147#0 37956147#1 37956147#2 37956147#3 37956147#4"/>
    </vehicle>
    <vehicle id="route120" depart="600.00">
        <route edges="37956147#3 37956147#4 37956147#5 97111251#0 97111251#1 97111251#2 97111251#3 97111251#4 68286129#0 68286129#1 240092039#0 240092039#1 240092039#2 240092039#3"/>
    </vehicle>
    <vehicle id="route121" depart="605.00">
        <route edges="68286127#6"/>
    </vehicle>
    <vehicle id="route122" depart="610.00">
        <route edges="68286127#2 68286127#3 68286127#4 68286127#5 68286127#6 23800071#0 23800071#1 23800071#2 23800071#3 23800071#4 31301718#0 31301718#1 31301718#2 72847149#0 72847149#1 23066740#0 23066740#1 177180084 198530824 223006673#0 223006673#1 24771360#0 24771360#1 24771360#2 24771360#3 24802988#0 24802988#1 24802988#2 24802988#3 24802988#4 24802988#5 24802988#6 24802988#7 24802988#8 24802988#9 24802988#10 24802988#11 68286129#0 68286129#1 240092039#0 240092039#1 240092039#2 240092039#3 84690452#0 84690452#1 84690452#2 84690448#0 84690448#1 35209300 97121841#0 97121841#1"/>
    </vehicle>
    <vehicle id="route124" depart="620.00">
        <route edges="34663493#0 34663493#1 34663493#2 34663493#3 74502611#0 74502611#1 74502611#2 24771362#0 24771362#1 24771362#2 24802988#0 24802988#1 24802988#2 24802988#3 24802988#4 24802988#5 24802988#6 24802988#7 24802988#8 24802988#9 24802988#10 24802988#11 68286129#0 68286129#1 240092039#0 87029737#0 87029737#1 86060253#2 86060253#3 86060253#4 97111251#2 97111251#3"/>
    </vehicle>
    <vehicle id="route125" depart="625.00">
        <route edges="240092040#1 240092040#2 84690453#0 84690453#1 84690461#0 84690461#1 84690461#2 30076096#0 30076096#1 30076096#2 30076096#3 30076096#4 68286127#0 68286127#1 68286127#2 68286127#3 68286127#4 68286127#5 68286127#6 23800071#0 23800071#1 23800071#2 23800071#3 23800071#4 31301718#0 31301718#1 31301718#2"/>
    </vehicle>
    <vehicle id="route127" depart="635.00">
        <route edges="24771362#2 24802988#0 24802988#1 24802988#2 24802988#3 24802988#4 24802988#5 24802988#6 24802988#7 24802988#8 24802988#9 24802988#10"/>
    </vehicle>
    <vehicle id="route128" depart="640.00">
        <route edges="35209298#0 35209298#1 35209298#2 35209298#3 35209301#0 35209301#1 24789912#0 24789912#1 24789912#2 84690459 222680363 84690448#0 84690448#1 35209300 97121841#0 97121841#1 97121841#2"/>
    </vehicle>
    <vehicle id="route129" depart="645.00">
        <route edges="43760621#1 43760621#2 43760621#3 43760621#4 43760621#5 43760621#6 43760621#7 24909193#0 24909193#1 24909193#2 24909193#3 24909193#4 68286127#0 68286127#1 68286127#2 68286127#3 68286127#4 68286127#5 68286127#6"/>
    </vehicle>
    <vehicle id="route131" depart="655.00">
        <route edges="23800071#2 23800071#3 23800071#4 31301718#0 31301718#1 31301718#2 72847149#0 72847149#1 23066740#0 23066740#1 177180084 198530824 223006673#0 223006673#1 24771360#0 24771360#1 24771360#2 24771360#3 24802988#0 24802988#1 24802988#2 24802988#3 24802988#4 24802988#5 24802988#6 24802988#7 24802988#8 24802988#9 24802988#10 24802988#11 68286129#0 68286129#1 240092039#0 240092039#1 240092039#2 240092039#3 84690452#0 84690452#1 84690452#2 240092038 84690455 24789912#0 24789912#1 24789912#2 84690459 240607362 240092040#0 240092040#1 240092040#2"/>
    </vehicle>
    <vehicle id="route132" depart="660.00">
        <route edges="97121841#0 97121841#1 97121841#2 97121841#3 24771362#0 24771362#1 24771362#2 24802988#0 24802988#1 24802988#2 24802988#3 24802988#4 24802988#5 24802988#6 24802988#7 24802988#8 24802988#9 24802988#10 24802988#11 68286129#0 68286129#1 240092039#0 240092039#1 240092039#2 240092039#3 84690452#0 84690452#1 84690452#2 240092038 84690455 24789912#0 -155428150#1"/>
    </vehicle>
    <vehicle id="route135" depart="675.00">
        <route edges="84690448#1 35209298#0 35209298#1 35209298#2 35209298#3 35209301#0 35209301#1 24789912#0 24789912#1 24789912#2 84690459 240607362 240092040#0 240092040#1 240092040#2 84690453#0 84690453#1 84690461#0 84690461#1 84690461#2 30076096#0 30076096#1 30076096#2 30076096#3 30076096#4 68286127#0 68286127#1 68286127#2 68286127#3 68286127#4 68286127#5 68286127#6 23800071#0 23800071#1 23800071#2 23800071#3 23800071#4 31301718#0 31301718#1 31301718#2 72847149#0 72847149#1 23066740#0 23066740#1 177180084 23066741#0"/>
    </vehicle>
    <vehicle id="route136" depart="680.00">
        <route edges="84690461#0 84690461#1 84690461#2 30076096#0 30076096#1 30076096#2 30076096#3 30076096#4 68286127#0 68286127#1 68286127#2 68286127#3 68286127#4 68286127#5 68286127#6 23800071#0 23800071#1 23800071#2 23800071#3 23800071#4 31301718#0 31301718#1 31301718#2 72847149#0 72847149#1 23066740#0 23066740#1 177180084 198530824 223006672#0 223006672#1 223006672#2 283010968#0 283010968#1 141265570 177180085 23794856 141265569 110057082#0 110057082#1 110057082#2 110057082#3 68286128#0"/>
    </vehicle>
    <vehicle id="route138" depart="690.00">
        <route edges="97121841#2 97121841#3 24771362#0 24771362#1 24771362#2 24802988#0 24802988#1 24802988#2 24802988#3 24802988#4 24802988#5 24802988#6 24802988#7 24802988#8 24802988#9 24802988#10 24802988#11 68286129#0 68286129#1 240092039#0 240092039#1 240092039#2 240092039#3 97084819 23857969#0 23857969#1 -24805442#2 -24805442#1 -24805442#0 -155428148#1 155428148#1"/>
    </vehicle>
    <vehicle id="route139" depart="695.00">
        <route edges="68286127#6 23800071#0 23800071#1 23800071#2 23800071#3 23800071#4 31301718#0 31301718#1 31301718#2 72847149#0 72847149#1 23066740#0 23066740#1 177180084 198530824 223006673#0 223006673#1 24771360#0 24771360#1 24771360#2 24771360#3 24802988#0 24802988#1 24802988#2 24802988#3 24802988#4 24802988#5 24802988#6 24802988#7 24802988#8 24802988#9 24802988#10 24802988#11 68286129#0 68286129#1 240092039#0 240092039#1 240092039#2 240092039#3 84690452#0 84690452#1 84690452#2 240092038"/>
    </vehicle>
    <vehicle id="route140" depart="700.00">
        <route edges="68286127#3 68286127#4 68286127#5 68286127#6 23800071#0 23800071#1 23800071#2 23800071#3 23800071#4 31301718#0 31301718#1 31301718#2 72847149#0 72847149#1 23066740#0 23066740#1 177180084 198530824 223006673#0 223006673#1 24771360#0 24771360#1 24771360#2 24771360#3 24802988#0 24802988#1 24802988#2 24802988#3 24802988#4 24802988#5 24802988#6 24802988#7 24802988#8 24802988#9 24802988#10 24802988#11 68286129#0 68286129#1 240092039#0 240092039#1 240092039#2 240092039#3 97084819 23857969#0 23857969#1"/>
    </vehicle>
    <vehicle id="route141" depart="705.00">
        <route edges="34663493#1 34663493#2 34663493#3 74502611#0 74502611#1 74502611#2 24771362#0 24771362#1 24771362#2 43760621#0 43760621#1 43760621#2 43760621#3 43760621#4 43760621#5 43760621#6 43760621#7 24909193#0 24909193#1 24909193#2 24909193#3 24909193#4 68286127#0 68286127#1 68286127#2 68286127#3 68286127#4 68286127#5 68286127#6 23800071#0 23800071#1 23800071#2 23800071#3 23800071#4 31301718#0 31301718#1 31301718#2 72847149#0 72847149#1 23066740#0 23066740#1 177180084 198530824 223006672#0 223006672#1 223006672#2 283010968#0"/>
    </vehicle>
    <vehicle id="route147" depart="735.00">
        <route edges="35209298#3 35209301#0 35209301#1 24789912#0 24789912#1 24789912#2 84690459 240607362 240092040#0 240092040#1 240092040#2 84690453#0 84690453#1 84690461#0 84690461#1 84690461#2 30076096#0 30076096#1 30076096#2 30076096#3 30076096#4 68286127#0 68286127#1 68286127#2 68286127#3 68286127#4 68286127#5 68286127#6 23800071#0 23800071#1 23800071#2 23800071#3 23800071#4 31301718#0 31301718#1 31301718#2 72847149#0 72847149#1 23066740#0 23066740#1 177180084 198530824 223006672#0 223006672#1 223006672#2 283010968#0 283010968#1 141265570 32359806#0 32359806#1 474153110 372798159#1"/>
    </vehicle>
    <vehicle id="route148" depart="740.00">
        <route edges="24909193#2 24909193#3 24909193#4 68286127#0 68286127#1 68286127#2 68286127#3 68286127#4 68286127#5 68286127#6 23800071#0 23800071#1 23800071#2 23800071#3 23800071#4 31301718#0 31301718#1 31301718#2 72847149#0 72847149#1 23066740#0 23066740#1 177180084 198530824 223006673#0 223006673#1 24771360#0 24771360#1 24771360#2 24771360#3 24802988#0 24802988#1 24802988#2 24802988#3 24802988#4 24802988#5 24802988#6 24802988#7 24802988#8 24802988#9 24802988#10 24802988#11 68286129#0 68286129#1 240092039#0 87029737#0 87029737#1 86060253#2"/>
    </vehicle>
    <vehicle id="route149" depart="745.00">
        <route edges="27742894#1 97251510#0 97251510#1 97251510#2 97111251#0 97111251#1 97111251#2 97111251#3 97111251#4 68286129#0 68286129#1 240092039#0 240092039#1 240092039#2 240092039#3 97084819 84690453#0 84690453#1 84690461#0 84690461#1 84690461#2 30076096#0 30076096#1 30076096#2 30076096#3 30076096#4 68286127#0 68286127#1 68286127#2 68286127#3 68286127#4 68286127#5 68286127#6 23800071#0 23800071#1"/>
    </vehicle>
    <vehicle id="route151" depart="755.00">
        <route edges="240092040#2"/>
    </vehicle>
    <vehicle id="route152" depart="760.00">
        <route edges="24771360#2 24771360#3 43760621#0 43760621#1 43760621#2 43760621#3 43760621#4 43760621#5 43760621#6 43760621#7 24909193#0 24909193#1 24909193#2 24909193#3 24909193#4 68286127#0 68286127#1 68286127#2 68286127#3 68286127#4 68286127#5 68286127#6 23800071#0 23800071#1 23800071#2 23800071#3 23800071#4 31301718#0 31301718#1 31301718#2 72847149#0 72847149#1 23066740#0 23066740#1 177180084 198530824 223006672#0 223006672#1 223006672#2 283010968#0 283010968#1 141265570 177180085 23794856 141265569 110057082#0 110057082#1 110057082#2 110057082#3 68286128#0 68286128#1 68286131#0"/>
    </vehicle>
    <vehicle id="route154" depart="770.00">