<?xml version="1.0" encoding="UTF-8"?>

<!-- generated on Wed Oct 28 11:40:30 2020 by Eclipse SUMO duarouter Version 1.7.0
<configuration xmlns:xsi="http://www.w3.org/2001/XMLSchema-instance" xsi:noNamespaceSchemaLocation="http://sumo.dlr.de/xsd/duarouterConfiguration.xsd">

    <input>
        <net-file value="trento.net.xml"/>
        <additional-files value="trentoEU3.add.xml"/>
        <route-files value="trentoEU3.trips.xml"/>
    </input>

    <output>
        <output-file value="trentoEU3.rou.xml"/>
        <alternatives-output value="trentoEU3.rou.alt.xml"/>
    </output>

    <time>
        <begin value="0"/>
        <end value="3600"/>
    </time>

    <report>
        <no-warnings value="true"/>
        <ignore-errors value="true"/>
        <no-step-log value="true"/>
    </report>

</configuration>
-->

<routes xmlns:xsi="http://www.w3.org/2001/XMLSchema-instance" xsi:noNamespaceSchemaLocation="http://sumo.dlr.de/xsd/routes_file.xsd">
    <vType id="type_HBEFA3/PC_G_EU3" length="5.00" maxSpeed="70.00" vClass="passenger" emissionClass="HBEFA3/PC_G_EU3" carFollowModel="Krauss" accel="2.6" decel="4.5" sigma="0.5"/>
    <vehicle id="testroute0" type="type_HBEFA3/PC_G_EU3" depart="0.00">
        <route edges="31301718#2 72847149#0 72847149#1 23066740#0 23066740#1 177180084 198530824 223006673#0 223006673#1 24771360#0 24771360#1 24771360#2 24771360#3 24802988#0 24802988#1 24802988#2 24802988#3 24802988#4 24802988#5 24802988#6 24802988#7 24802988#8 24802988#9 24802988#10 24802988#11 68286129#0 68286129#1 240092039#0 240092039#1 240092039#2 240092039#3 84690452#0 84690452#1 84690452#2 240092038 84690455 24789912#0 -155428150#1 -155428150#0"/>
    </vehicle>
    <vehicle id="testroute3" type="type_HBEFA3/PC_G_EU3" depart="3.00">
        <route edges="84690452#2 240092038 84690455 24789912#0 24789912#1 24789912#2 84690459 240607362 240092040#0 240092040#1 240092040#2 84690453#0 84690453#1 84690461#0 84690461#1 84690461#2 30076096#0 30076096#1 30076096#2 30076096#3 30076096#4 68286127#0 68286127#1 68286127#2 68286127#3 68286127#4 68286127#5 68286127#6 23800071#0 23800071#1 23800071#2 23800071#3 23800071#4 31301718#0 31301718#1 31301718#2 72847149#0 72847149#1 23066740#0 23066740#1 177180084 198530824 223006673#0 223006673#1 24917678#0 24917678#1 23763916 122602437 223001538 24917570 78785835 78785864#0 -24917590#0"/>
    </vehicle>
    <vehicle id="testroute5" type="type_HBEFA3/PC_G_EU3" depart="5.00">
        <route edges="222680363 84690448#0 84690448#1 35209300 97121841#0 97121841#1 97121841#2 97121841#3 24771362#0 24771362#1 24771362#2 24802988#0 24802988#1 24802988#2 24802988#3 24802988#4 24802988#5 24802988#6 24802988#7 24802988#8 24802988#9"/>
    </vehicle>
    <vehicle id="testroute8" type="type_HBEFA3/PC_G_EU3" depart="8.00">
        <route edges="222680363 240092038 84690455 24789912#0 24789912#1 24789912#2 84690459 240607362 240092040#0 240092040#1 240092040#2 84690453#0 84690453#1 84690461#0 84690461#1 84690461#2 30076096#0 30076096#1 30076096#2 30076096#3 30076096#4 68286127#0 68286127#1 68286127#2 68286127#3 68286127#4 68286127#5 68286127#6 23800071#0 23800071#1 23800071#2 23800071#3 23800071#4 31301718#0 31301718#1 31301718#2 72847149#0 72847149#1 23066740#0 23066740#1 177180084 198530824 223006673#0 223006673#1 24917678#0"/>
    </vehicle>
    <vehicle id="testroute9" type="type_HBEFA3/PC_G_EU3" depart="9.00">
        <route edges="68286127#3 68286127#4 68286127#5 68286127#6 23800071#0 23800071#1 23800071#2 23800071#3 23800071#4 31301718#0 31301718#1 31301718#2 72847149#0 72847149#1 23066740#0 23066740#1 177180084 198530824 223006672#0 223006672#1 223006672#2 283010968#0 283010968#1 141265570 177180085 23794856 141265569 110057082#0 110057082#1 -110057082#1"/>
    </vehicle>
    <vehicle id="testroute10" type="type_HBEFA3/PC_G_EU3" depart="10.00">
        <route edges="68286127#2 68286127#3 68286127#4 68286127#5 68286127#6 23800071#0 23800071#1 23800071#2 23800071#3 23800071#4 31301718#0 31301718#1 31301718#2 72847149#0 72847149#1 23066740#0 23066740#1 177180084 198530824 223006673#0 223006673#1 24771360#0 24771360#1 24771360#2 24771360#3 24802988#0 24802988#1 24802988#2 24802988#3 24802988#4 24802988#5 24802988#6 24802988#7 24802988#8 24802988#9 24802988#10 24802988#11 68286129#0 68286129#1 240092039#0 240092039#1 240092039#2 240092039#3 97084819 84690453#0 84690453#1 84690461#0 84690461#1 84690461#2 37956147#0"/>
    </vehicle>
    <vehicle id="testroute11" type="type_HBEFA3/PC_G_EU3" depart="11.00">
        <route edges="23952132#1 23952132#2 23952132#3 23952132#4 23952132#5 223006226 23800071#0 23800071#1 23800071#2 23800071#3 23800071#4 31301718#0 31301718#1 31301718#2 72847149#0 72847149#1 23066740#0 23066740#1 177180084 198530824 223006673#0 223006673#1 24771360#0 24771360#1 24771360#2 24771360#3 24802988#0 24802988#1 24802988#2 24802988#3 24802988#4 24802988#5 24802988#6 24802988#7 24802988#8 24802988#9 24802988#10 24802988#11 68286129#0 68286129#1 240092039#0 240092039#1 240092039#2 240092039#3 97084819 84690453#0 84690453#1 84690461#0 84690461#1 84690461#2 -84690461#2"/>
    </vehicle>
    <vehicle id="testroute13" type="type_HBEFA3/PC_G_EU3" depart="13.00">
        <route edges="-283010968#1"/>
    </vehicle>
    <vehicle id="testroute14" type="type_HBEFA3/PC_G_EU3" depart="14.00">
        <route edges="74502611#0 74502611#1 74502611#2 24771362#0 24771362#1 24771362#2 43760621#0 43760621#1 43760621#2 43760621#3 43760621#4 43760621#5 43760621#6 43760621#7 24909193#0 24909193#1 24909193#2 24909193#3 24909193#4 68286127#0 68286127#1 68286127#2 68286127#3 68286127#4 68286127#5 68286127#6 23800071#0 23800071#1 23800071#2 23800071#3 23800071#4 31301718#0 31301718#1 31301718#2 72847149#0 72847149#1 23066740#0 23066740#1 177180084 198530824 223006672#0 223006672#1 223006672#2 283010968#0"/>
    </vehicle>
    <vehicle id="testroute16" type="type_HBEFA3/PC_G_EU3" depart="16.00">
        <route edges="24805443#0 -24805443#0 24581835#1 24581835#2 -155428148#1 -155428148#0 -24771369#2 -24771369#1 -24771369#0 155428150#0 155428150#1 24789912#1 24789912#2 84690459 240607362 240092040#0 240092040#1 240092040#2 84690453#0 84690453#1 84690454#0 84690454#1 86060253#0 86060253#1 86060253#2 86060253#3 86060253#4 97111251#2 97111251#3"/>
    </vehicle>
    <vehicle id="testroute17" type="type_HBEFA3/PC_G_EU3" depart="17.00">
        <route edges="240092040#0 240092040#1 240092040#2 84690453#0 84690453#1 84690461#0 84690461#1 84690461#2 30076096#0 30076096#1 30076096#2 30076096#3 30076096#4 68286127#0 68286127#1 68286127#2 68286127#3 68286127#4 68286127#5 68286127#6 23800071#0 23800071#1 23800071#2 23800071#3 23800071#4 31301718#0 31301718#1 31301718#2 72847149#0 72847149#1 23066740#0 23066740#1 177180084 198530824 223006673#0 223006673#1 24917678#0 24917678#1 23763916 122602437 223001538 24917570"/>
    </vehicle>
    <vehicle id="testroute18" type="type_HBEFA3/PC_G_EU3" depart="18.00">
        <route edges="68286129#0 68286129#1 240092039#0 240092039#1 240092039#2 240092039#3 97084819 84690453#0 84690453#1 84690461#0 84690461#1 84690461#2 30076096#0 30076096#1 30076096#2"/>
    </vehicle>
    <vehicle id="testroute19" type="type_HBEFA3/PC_G_EU3" depart="19.00">
        <route edges="75417888 34663493#0 34663493#1 34663493#2 34663493#3 24917615#0 24917615#1 24917615#2 24917615#3 198530825#0 198530825#1 24917649#0 24917649#1"/>
    </vehicle>
    <vehicle id="testroute24" type="type_HBEFA3/PC_G_EU3" depart="24.00">
        <route edges="31301718#0 31301718#1 31301718#2 72847149#0 72847149#1 23066740#0 23066740#1 177180084 198530824 223006673#0 223006673#1 24771360#0 24771360#1 24771360#2 24771360#3 24802988#0 24802988#1 24802988#2 24802988#3 24802988#4 24802988#5 24802988#6 24802988#7 24802988#8 24802988#9 24802988#10 24802988#11 68286129#0 68286129#1 240092039#0 240092039#1 240092039#2 240092039#3 84690452#0 84690452#1 84690452#2 240092038"/>
    </vehicle>
    <vehicle id="testroute25" type="type_HBEFA3/PC_G_EU3" depart="25.00">
        <route edges="240092039#1 240092039#2 240092039#3 97084819 84690453#0 84690453#1 84690461#0 84690461#1 84690461#2 30076096#0 30076096#1 30076096#2 30076096#3 30076096#4 68286127#0 68286127#1 68286127#2 68286127#3 68286127#4 68286127#5 68286127#6 23800071#0 23800071#1 23800071#2 23800071#3 23800071#4 31301718#0 31301718#1 31301718#2 72847149#0 72847149#1 23066740#0 23066740#1 177180084 198530824"/>
    </vehicle>
    <vehicle id="testroute27" type="type_HBEFA3/PC_G_EU3" depart="27.00">
        <route edges="32359806#1 474153110 372798159#1 372798159#2 372798159#3 -177180085 -141265570 -283010968#1 -283010968#0 283010968#0 283010968#1"/>
    </vehicle>
    <vehicle id="testroute30" type="type_HBEFA3/PC_G_EU3" depart="30.00">
        <route edges="97121841#3 24771362#0 24771362#1 24771362#2 43760621#0 43760621#1 43760621#2 43760621#3 43760621#4 43760621#5 43760621#6 43760621#7 24909193#0 24909193#1 24909193#2 24909193#3 24909193#4 68286127#0 68286127#1 68286127#2 68286127#3 68286127#4 68286127#5 68286127#6 23800071#0 23800071#1 23800071#2 23800071#3 23800071#4 31301718#0 31301718#1 31301718#2 72847149#0 72847149#1 23066740#0 23066740#1 177180084 198530824 223006672#0 223006672#1 223006672#2 283010968#0 283010968#1 141265570 32359806#0"/>
    </vehicle>
    <vehicle id="testroute32" type="type_HBEFA3/PC_G_EU3" depart="32.00">
        <route edges="72847149#1 23066740#0 23066740#1 177180084 198530824 223006673#0 223006673#1 24771360#0 24771360#1 24771360#2 24771360#3 43760621#0 43760621#1 43760621#2 43760621#3 43760621#4 43760621#5"/>
    </vehicle>
    <vehicle id="testroute33" type="type_HBEFA3/PC_G_EU3" depart="33.00">
        <route edges="223006226 23800071#0 23800071#1 23800071#2 23800071#3 23800071#4 31301718#0 31301718#1 31301718#2 72847149#0 72847149#1 23066740#0 23066740#1 177180084 198530824 223006672#0 223006672#1 223006672#2 283010968#0 283010968#1 141265570 177180085 -177180085"/>
    </vehicle>
    <vehicle id="testroute35" type="type_HBEFA3/PC_G_EU3" depart="35.00">
        <route edges="198530824 223006673#0 223006673#1 24771360#0 24771360#1 24771360#2 24771360#3 24802988#0 24802988#1 24802988#2 24802988#3 24802988#4 24802988#5 24802988#6 24802988#7 24802988#8 24802988#9 24802988#10 24802988#11 68286129#0 68286129#1 240092039#0 87029737#0 87029737#1 86060253#2"/>
    </vehicle>
    <vehicle id="testroute38" type="type_HBEFA3/PC_G_EU3" depart="38.00">
        <route edges="84690454#4 84690452#0 84690452#1 84690452#2 240092038 84690455 24789912#0"/>
    </vehicle>
    <vehicle id="testroute42" type="type_HBEFA3/PC_G_EU3" depart="42.00">
        <route edges="240092041#3 -84690461#2 -84690461#1 -84690461#0 84690454#0 84690454#1 84690454#2 84690454#3 84690454#4 84690452#0 84690452#1 84690452#2 240092038 84690455 24789912#0 24789912#1 24789912#2 84690459 222680363"/>
    </vehicle>
    <vehicle id="testroute43" type="type_HBEFA3/PC_G_EU3" depart="43.00">
        <route edges="97251510#2 97111251#0 97111251#1 97111251#2 97111251#3 97111251#4 68286129#0 68286129#1 240092039#0 240092039#1 240092039#2 240092039#3 84690452#0 84690452#1 84690452#2 240092038 84690455 24789912#0 24789912#1 24789912#2 84690459 240607362 24805440#0"/>
    </vehicle>
    <vehicle id="testroute44" type="type_HBEFA3/PC_G_EU3" depart="44.00">
        <route edges="-25578800 -393170561#2 -393170561#1 -393170561#0 -23951767#3 -23951767#2"/>
    </vehicle>
    <vehicle id="testroute47" type="type_HBEFA3/PC_G_EU3" depart="47.00">
        <route edges="-24771369#2 -24771369#1 -24771369#0 155428150#0 155428150#1 24789912#1 24789912#2 84690459 240607362 240092040#0"/>
    </vehicle>
    <vehicle id="testroute51" type="type_HBEFA3/PC_G_EU3" depart="51.00">
        <route edges="35209298#3 35209301#0 35209301#1 24789912#0 24789912#1 24789912#2 84690459 222680363 84690448#0 84690448#1 35209300 97121841#0 97121841#1 97121841#2 97121841#3 24771362#0 24771362#1 24771362#2 43760621#0 43760621#1 43760621#2 43760621#3 43760621#4 43760621#5 43760621#6 43760621#7 24909193#0 24909193#1"/>
    </vehicle>
    <vehicle id="testroute52" type="type_HBEFA3/PC_G_EU3" depart="52.00">
        <route edges="23066741#1 37956149#0 37956149#1 37956149#2 223006672#1 223006672#2 283010968#0 283010968#1 141265570 32359806#0 32359806#1"/>
    </vehicle>
    <vehicle id="testroute54" type="type_HBEFA3/PC_G_EU3" depart="54.00">
        <route edges="24771369#1 -24771369#1 -24771369#0 155428150#0 155428150#1 24789912#1 24789912#2 84690459 240607362 240092040#0 240092040#1 240092040#2 84690453#0 84690453#1 84690454#0 84690454#1 86060253#0 86060253#1 86060253#2 75356279#0 75356279#1 240092039#0 87029737#0 87029737#1"/>
    </vehicle>
    <vehicle id="testroute56" type="type_HBEFA3/PC_G_EU3" depart="56.00">
        <route edges="24802988#6 24802988#7 24802988#8 24802988#9 24802988#10 24802988#11 68286129#0 68286129#1 240092039#0 240092039#1 240092039#2 240092039#3 97084819 84690453#0 84690453#1 84690461#0 84690461#1 84690461#2 30076096#0 30076096#1 30076096#2 30076096#3 30076096#4 68286127#0 68286127#1 68286127#2 68286127#3 68286127#4 68286127#5 68286127#6 23800071#0 23800071#1 23800071#2 23800071#3 23800071#4 31301718#0 31301718#1 31301718#2 72847149#0 72847149#1 23066740#0 23066740#1 177180084 198530824 223006673#0 223006673#1 24917678#0 24917678#1 23763916 122602437"/>
    </vehicle>
    <vehicle id="testroute57" type="type_HBEFA3/PC_G_EU3" depart="57.00">
        <route edges="84690454#3 84690454#4 97084819 84690453#0 84690453#1 84690461#0 84690461#1 84690461#2 30076096#0 30076096#1 30076096#2 30076096#3 30076096#4 68286127#0 68286127#1 68286127#2 68286127#3 68286127#4 68286127#5 68286127#6 23800071#0 23800071#1 23800071#2 23800071#3 23800071#4 31301718#0 31301718#1 31301718#2 72847149#0 72847149#1 23066740#0 23066740#1 177180084 198530824 223006673#0 223006673#1 24917678#0 24917678#1 23763916 122602437 223001538 24917570 78785835 78785864#0 78785864#1"/>
    </vehicle>
    <vehicle id="testroute58" type="type_HBEFA3/PC_G_EU3" depart="58.00">
        <route edges="23800071#3 23800071#4 31301718#0 31301718#1 31301718#2 72847149#0 72847149#1 23066740#0 23066740#1 177180084 198530824 223006672#0 223006672#1 223006672#2 283010968#0 283010968#1 141265570 32359806#0"/>
    </vehicle>
    <vehicle id="testroute59" type="type_HBEFA3/PC_G_EU3" depart="59.00">
        <route edges="27742894#1 97251510#0 97251510#1 97251510#2 97111251#0 97111251#1 97111251#2 97111251#3 97111251#4 68286129#0 68286129#1 240092039#0 240092039#1 240092039#2 240092039#3 97084819 84690453#0 84690453#1 84690461#0 84690461#1 -84690461#1"/>
    </vehicle>
    <vehicle id="testroute60" type="type_HBEFA3/PC_G_EU3" depart="60.00">
        <route edges="43760621#0 43760621#1 43760621#2 43760621#3 43760621#4 43760621#5 43760621#6 43760621#7 24909193#0 24909193#1"/>
    </vehicle>
    <vehicle id="testroute63" type="type_HBEFA3/PC_G_EU3" depart="63.00">
        <route edges="-155428148#1 -155428148#0 -24771369#2 -24771369#1 -24771369#0 155428150#0 155428150#1 24789912#1 24789912#2 84690459 240607362 240092040#0 240092040#1 240092040#2 84690453#0 84690453#1 84690461#0 84690461#1"/>
    </vehicle>
    <vehicle id="testroute64" type="type_HBEFA3/PC_G_EU3" depart="64.00">
        <route edges="84690448#0 84690448#1 35209298#0 35209298#1 35209298#2 35209298#3 35209301#0 35209301#1 24789912#0 24789912#1 24789912#2 84690459 240607362 240092040#0 240092040#1 240092040#2 84690453#0 84690453#1 84690461#0 84690461#1 84690461#2 30076096#0 30076096#1 30076096#2 30076096#3 30076096#4 68286127#0 68286127#1 68286127#2 68286127#3 68286127#4 68286127#5 68286127#6 23800071#0 23800071#1 23800071#2 23800071#3 23800071#4 31301718#0 31301718#1 31301718#2 72847149#0 72847149#1 23066740#0 23066740#1 177180084 198530824 223006672#0 223006672#1 223006672#2 283010968#0 283010968#1 141265570 177180085 23794856 141265569 110057082#0 110057082#1 110057082#2 110057082#3 68286128#0 68286128#1 68286131#0"/>
    </vehicle>
    <vehicle id="testroute66" type="type_HBEFA3/PC_G_EU3" depart="66.00">
        <route edges="84690448#0 84690448#1 35209298#0 35209298#1 35209298#2 35209298#3 35209301#0 35209301#1 24789912#0 24789912#1 24789912#2 84690459 240607362 240092040#0 240092040#1 240092040#2 84690453#0 84690453#1 84690454#0 84690454#1 86060253#0 86060253#1 86060253#2 86060253#3 86060253#4"/>
    </vehicle>
    <vehicle id="testroute68" type="type_HBEFA3/PC_G_EU3" depart="68.00">
        <route edges="-24805442#0 -155428148#1 -155428148#0 -24771369#2 -24771369#1 -24771369#0 155428150#0 155428150#1 24789912#1 24789912#2 84690459 222680363 84690448#0 84690448#1 35209300 97121841#0 97121841#1 97121841#2 97121841#3 24771362#0 24771362#1 24771362#2 43760621#0 43760621#1"/>
    </vehicle>
    <vehicle id="testroute70" type="type_HBEFA3/PC_G_EU3" depart="70.00">
        <route edges="24802988#0 24802988#1 24802988#2 24802988#3 24802988#4 24802988#5 24802988#6 24802988#7 24802988#8 24802988#9 24802988#10 24802988#11 68286129#0 68286129#1 240092039#0 240092039#1 240092039#2 240092039#3 84690452#0 84690452#1 84690452#2 84690448#0 84690448#1 35209300 97121841#0 97121841#1 97121841#2 97121841#3 24771362#0 24771362#1 24771362#2 43760621#0 43760621#1 43760621#2 43760621#3 43760621#4 43760621#5 43760621#6 43760621#7 24909193#0 24909193#1 24909193#2 24909193#3 24909193#4"/>
    </vehicle>
    <vehicle id="testroute74" type="type_HBEFA3/PC_G_EU3" depart="74.00">
        <route edges="177180084 198530824 223006673#0 223006673#1 24771360#0 24771360#1 24771360#2 24771360#3 24802988#0 24802988#1 24802988#2 24802988#3 24802988#4 24802988#5 24802988#6 24802988#7 24802988#8 24802988#9 24802988#10 24802988#11 68286129#0 68286129#1 240092039#0 240092039#1 240092039#2 240092039#3 97084819 23857969#0"/>
    </vehicle>
    <vehicle id="testroute76" type="type_HBEFA3/PC_G_EU3" depart="76.00">
        <route edges="24771360#3 24802988#0 24802988#1 24802988#2 24802988#3 24802988#4 24802988#5 24802988#6 24802988#7 24802988#8 24802988#9 24802988#10 24802988#11 68286129#0 68286129#1 240092039#0 240092039#1 240092039#2 240092039#3 97084819 23857969#0 23857969#1 -24805442#2 -24805442#1 -24805442#0 24805442#0"/>
    </vehicle>
    <vehicle id="testroute78" type="type_HBEFA3/PC_G_EU3" depart="78.00">
        <route edges="23952132#1 23952132#2 23952132#3 23952132#4 23952132#5 223006226 23800071#0 23800071#1 23800071#2 23800071#3 23800071#4 31301718#0 31301718#1 31301718#2 72847149#0 72847149#1 23066740#0 23066740#1 177180084 198530824 223006673#0 223006673#1 24917678#0"/>
    </vehicle>
    <vehicle id="testroute80" type="type_HBEFA3/PC_G_EU3" depart="80.00">
        <route edges="-24805442#1 -24805442#0 -155428148#1 -155428148#0 -24771369#2 -24771369#1 -24771369#0 155428150#0 155428150#1 24789912#1 24789912#2 84690459 240607362 240092040#0 240092040#1 240092040#2 84690453#0 84690453#1 84690461#0 84690461#1 84690461#2 30076096#0 30076096#1 30076096#2 30076096#3 30076096#4 68286127#0 68286127#1 68286127#2 68286127#3 68286127#4 68286127#5 68286127#6 23800071#0 23800071#1 23800071#2 23800071#3 23800071#4 31301718#0 31301718#1"/>
    </vehicle>
    <vehicle id="testroute81" type="type_HBEFA3/PC_G_EU3" depart="81.00">
        <route edges="223006226 23800071#0 23800071#1 23800071#2 23800071#3 23800071#4 31301718#0 31301718#1 31301718#2 72847149#0 72847149#1 23066740#0 23066740#1 177180084 198530824 223006673#0 223006673#1 24771360#0 24771360#1 24771360#2 24771360#3 24802988#0 24802988#1 24802988#2 24802988#3 24802988#4 24802988#5 24802988#6 24802988#7 24802988#8 24802988#9 24802988#10 24802988#11 68286129#0 68286129#1 240092039#0 240092039#1 240092039#2 240092039#3 97084819 84690453#0 84690453#1 84690454#0 84690454#1"/>
    </vehicle>
    <vehicle id="testroute82" type="type_HBEFA3/PC_G_EU3" depart="82.00">
        <route edges="75356279#1 240092039#0 240092039#1 240092039#2 240092039#3 97084819 23857969#0 23857969#1 -24805442#2 -24805442#1 -24805442#0"/>
    </vehicle>
    <vehicle id="testroute86" type="type_HBEFA3/PC_G_EU3" depart="86.00">
        <route edges="24789912#2 84690459 240607362 240092040#0 240092040#1 240092040#2 84690453#0 84690453#1 84690461#0 84690461#1 84690461#2 30076096#0 30076096#1 30076096#2 30076096#3 30076096#4 68286127#0 68286127#1 68286127#2 68286127#3 68286127#4 68286127#5 68286127#6 23800071#0 23800071#1 23800071#2 23800071#3 23800071#4 31301718#0 31301718#1 31301718#2 72847149#0 72847149#1 23066740#0 23066740#1 177180084 198530824 223006672#0 223006672#1 223006672#2 283010968#0 283010968#1 141265570 32359806#0 32359806#1 474153110"/>
    </vehicle>
    <vehicle id="testroute87" type="type_HBEFA3/PC_G_EU3" depart="87.00">
        <route edges="68286127#2 68286127#3 68286127#4 68286127#5 68286127#6 23800071#0 23800071#1 23800071#2 23800071#3 23800071#4 31301718#0 31301718#1 31301718#2 72847149#0 72847149#1 23066740#0 23066740#1 177180084 198530824 223006673#0 223006673#1 24771360#0 24771360#1 24771360#2 24771360#3 24802988#0 24802988#1 24802988#2 24802988#3 24802988#4 24802988#5 24802988#6 24802988#7 24802988#8 24802988#9 24802988#10 24802988#11 68286129#0 68286129#1 240092039#0 240092039#1 240092039#2 240092039#3 97084819 23857969#0 23857969#1 -24805442#2 -24805442#1 -24805442#0 -155428148#1 155428148#1"/>
    </vehicle>
    <vehicle id="testroute88" type="type_HBEFA3/PC_G_EU3" depart="88.00">
        <route edges="-35209301#1 35209301#1 24789912#0 24789912#1 24789912#2 84690459 240607362 240092040#0 240092040#1 240092040#2 84690453#0 84690453#1 84690461#0 84690461#1 84690461#2 30076096#0 30076096#1 30076096#2 30076096#3 30076096#4 68286127#0 68286127#1 68286127#2 68286127#3 68286127#4 68286127#5 68286127#6 23800071#0 23800071#1 23800071#2 23800071#3 23800071#4 31301718#0 31301718#1 31301718#2 72847149#0 72847149#1 23066740#0 23066740#1 177180084 198530824 223006673#0 223006673#1 24771360#0 24771360#1 24771360#2"/>
    </vehicle>
    <vehicle id="testroute91" type="type_HBEFA3/PC_G_EU3" depart="91.00">
        <route edges="97121841#2 97121841#3 24771362#0 24771362#1 24771362#2 43760621#0 43760621#1 43760621#2 43760621#3 43760621#4 43760621#5 43760621#6 43760621#7 24909193#0 24909193#1 24909193#2 24909193#3 24909193#4 68286127#0 68286127#1 68286127#2 68286127#3 68286127#4 68286127#5 68286127#6 23800071#0 23800071#1 23800071#2 23800071#3 23800071#4 31301718#0 31301718#1 31301718#2 72847149#0 72847149#1 23066740#0 23066740#1 177180084 198530824 223006672#0 223006672#1 223006672#2 283010968#0 283010968#1 -283010968#1"/>
    </vehicle>
    <vehicle id="testroute93" type="type_HBEFA3/PC_G_EU3" depart="93.00">
        <route edges="75417888 34663493#0 34663493#1 34663493#2 34663493#3 74502611#0 74502611#1 74502611#2 24771362#0 24771362#1 24771362#2 43760621#0 43760621#1 43760621#2 43760621#3 43760621#4 43760621#5 43760621#6 43760621#7 24909193#0 24909193#1 24909193#2 24909193#3 24909193#4 68286127#0 68286127#1 68286127#2 68286127#3 68286127#4 68286127#5 68286127#6 23800071#0 23800071#1 23800071#2 23800071#3 23800071#4 31301718#0 31301718#1 31301718#2 72847149#0 72847149#1 23066740#0 23066740#1 177180084 198530824 223006673#0 223006673#1"/>
    </vehicle>
    <vehicle id="testroute94" type="type_HBEFA3/PC_G_EU3" depart="94.00">
        <route edges="155428148#1 -155428148#1 -155428148#0 -24771369#2 -24771369#1 -24771369#0 24771369#0"/>
    </vehicle>
    <vehicle id="testroute96" type="type_HBEFA3/PC_G_EU3" depart="96.00">
        <route edges="228044900 -228044900 -24805443#1 -24805443#0 24581835#1 24581835#2 -155428148#1 -155428148#0 -24771369#2 -24771369#1 -24771369#0 155428150#0 155428150#1 24789912#1 24789912#2 84690459"/>
    </vehicle>
    <vehicle id="testroute99" type="type_HBEFA3/PC_G_EU3" depart="99.00">
        <route edges="97251510#2 97111251#0 97111251#1 97111251#2 97111251#3 97111251#4 68286129#0 68286129#1 240092039#0 240092039#1 240092039#2 240092039#3 97084819 84690453#0 84690453#1 84690461#0 84690461#1 84690461#2 30076096#0 30076096#1 30076096#2 30076096#3 30076096#4 68286127#0 68286127#1 68286127#2 68286127#3 68286127#4 68286127#5 68286127#6 23800071#0 23800071#1 23800071#2 23800071#3 23800071#4 31301718#0 31301718#1 31301718#2 72847149#0 72847149#1 23066740#0 23066740#1 177180084 198530824 223006672#0 223006672#1 223006672#2 283010968#0 283010968#1 141265570 177180085 23794856 141265569 110057082#0 110057082#1 110057082#2 110057082#3 68286128#0 68286128#1 68286131#0 68286131#1"/>
    </vehicle>
    <vehicle id="testroute100" type="type_HBEFA3/PC_G_EU3" depart="100.00">
        <route edges="97111251#2 97111251#3 97111251#4 68286129#0 68286129#1 240092039#0 240092039#1 240092039#2 240092039#3 97084819 84690453#0 84690453#1 84690461#0"/>
    </vehicle>
    <vehicle id="testroute101" type="type_HBEFA3/PC_G_EU3" depart="101.00">
        <route edges="74502611#1 74502611#2 24771362#0 24771362#1 24771362#2 43760621#0 43760621#1 43760621#2 43760621#3 43760621#4 43760621#5 43760621#6 43760621#7 24909193#0 24909193#1 24909193#2 24909193#3 24909193#4 68286127#0 68286127#1 68286127#2 68286127#3 68286127#4 68286127#5 68286127#6 23800071#0 23800071#1 23800071#2 23800071#3 23800071#4 31301718#0 31301718#1 31301718#2 72847149#0 72847149#1 23066740#0 23066740#1 177180084 198530824 223006672#0 223006672#1 223006672#2 283010968#0 283010968#1 141265570 177180085 23794856 141265569 110057082#0"/>
    </vehicle>
    <vehicle id="testroute102" type="type_HBEFA3/PC_G_EU3" depart="102.00">
        <route edges="24802988#11 68286129#0 68286129#1 240092039#0 240092039#1 240092039#2 240092039#3 97084819 84690453#0 84690453#1 84690461#0 84690461#1 84690461#2 30076096#0 30076096#1 30076096#2 30076096#3 30076096#4 68286127#0 68286127#1 68286127#2 68286127#3 68286127#4 68286127#5 68286127#6 23800071#0 23800071#1 23800071#2 23800071#3 23800071#4 31301718#0 31301718#1 31301718#2 72847149#0 72847149#1 23066740#0 23066740#1 177180084 198530824 223006673#0 223006673#1 24917678#0 24917678#1 198530825#0 198530825#1"/>
    </vehicle>
    <vehicle id="testroute104" type="type_HBEFA3/PC_G_EU3" depart="104.00">
        <route edges="240092040#0 240092040#1 240092040#2 84690453#0 84690453#1 84690454#0 84690454#1 84690454#2 84690454#3 84690454#4 84690452#0 84690452#1 84690452#2 84690448#0 84690448#1 35209300 97121841#0 97121841#1 97121841#2"/>
    </vehicle>
    <vehicle id="testroute105" type="type_HBEFA3/PC_G_EU3" depart="105.00">
        <route edges="23066741#1 37956149#0 37956149#1 37956149#2 223006672#1 223006672#2 283010968#0 283010968#1 141265570 32359806#0 32359806#1 474153110"/>
    </vehicle>
    <vehicle id="testroute107" type="type_HBEFA3/PC_G_EU3" depart="107.00">
        <route edges="97084819 84690453#0 84690453#1 84690461#0 84690461#1 84690461#2 30076096#0 30076096#1 30076096#2 30076096#3 30076096#4 68286127#0 68286127#1 68286127#2 68286127#3 68286127#4 68286127#5 68286127#6 23800071#0 23800071#1 23800071#2 23800071#3 23800071#4 31301718#0 31301718#1 31301718#2 72847149#0 72847149#1 23066740#0 23066740#1 177180084 198530824 223006673#0 223006673#1 24771360#0 24771360#1 24771360#2 24771360#3 43760621#0 43760621#1 43760621#2 43760621#3 43760621#4 43760621#5 43760621#6 43760621#7 27742894#0 27742894#1 97251510#0 97251510#1"/>
    </vehicle>
    <vehicle id="testroute108" type="type_HBEFA3/PC_G_EU3" depart="108.00">
        <route edges="24909193#4 68286127#0 68286127#1 68286127#2 68286127#3 68286127#4 68286127#5 68286127#6 23800071#0 23800071#1 23800071#2 23800071#3 23800071#4 31301718#0 31301718#1 31301718#2 72847149#0 72847149#1 23066740#0 23066740#1 177180084 23066741#0 23066741#1 37956149#0"/>
    </vehicle>
    <vehicle id="testroute109" type="type_HBEFA3/PC_G_EU3" depart="109.00">
        <route edges="-84690461#2 -84690461#1 84690461#1 84690461#2 30076096#0 30076096#1 30076096#2 30076096#3 30076096#4 68286127#0 68286127#1 68286127#2 68286127#3 68286127#4 68286127#5 68286127#6 23800071#0 23800071#1"/>
    </vehicle>
    <vehicle id="testroute110" type="type_HBEFA3/PC_G_EU3" depart="110.00">
        <route edges="97111251#2 97111251#3 97111251#4 68286129#0 68286129#1 240092039#0 240092039#1 240092039#2 240092039#3 97084819 84690453#0 84690453#1 84690461#0 84690461#1 84690461#2 30076096#0 30076096#1 30076096#2 30076096#3 30076096#4 68286127#0 68286127#1 68286127#2 68286127#3 68286127#4 68286127#5 68286127#6 23800071#0 23800071#1 23800071#2 23800071#3 23800071#4 31301718#0 31301718#1 31301718#2 72847149#0 72847149#1 23066740#0 23066740#1 177180084 198530824 223006673#0 223006673#1 24917678#0 24917678#1 198530825#0 198530825#1 24917649#0 24917649#1"/>
    </vehicle>
    <vehicle id="testroute112" type="type_HBEFA3/PC_G_EU3" depart="112.00">
        <route edges="-24771369#0 155428150#0 155428150#1 24789912#1 24789912#2 84690459 240607362 240092040#0 240092040#1 240092040#2 84690453#0 84690453#1 84690461#0 84690461#1 84690461#2 30076096#0 30076096#1 30076096#2 30076096#3 30076096#4 68286127#0 68286127#1 68286127#2 68286127#3 68286127#4 68286127#5 68286127#6 23800071#0 23800071#1 23800071#2 23800071#3 23800071#4 31301718#0 31301718#1 31301718#2 72847149#0 72847149#1 23066740#0 23066740#1 177180084 198530824 223006673#0 223006673#1 24917678#0 24917678#1 198530825#0 198530825#1 24917649#0 24917649#1 24917649#2 24917649#3"/>
    </vehicle>
    <vehicle id="testroute115" type="type_HBEFA3/PC_G_EU3" depart="115.00">
        <route edges="-24805443#1 -24805443#0 24581835#1 24581835#2 -155428148#1 -155428148#0 -24771369#2 -24771369#1 -24771369#0 155428150#0 155428150#1 24789912#1 24789912#2 84690459 240607362 240092040#0 240092040#1 240092040#2 84690453#0 84690453#1 84690461#0 84690461#1 84690461#2 30076096#0 30076096#1 30076096#2 30076096#3 30076096#4 68286127#0 68286127#1 68286127#2 68286127#3 68286127#4 68286127#5 68286127#6 23800071#0 23800071#1 23800071#2 23800071#3 23800071#4 31301718#0 31301718#1 31301718#2 72847149#0 72847149#1 23066740#0 23066740#1 177180084 198530824 223006672#0 223006672#1 223006672#2 283010968#0 283010968#1 141265570"/>
    </vehicle>
    <vehicle id="testroute118" type="type_HBEFA3/PC_G_EU3" depart="118.00">