<?xml version="1.0" encoding="UTF-8"?>

<!-- generated on Wed Dec 12 17:38:01 2018 by Eclipse SUMO netconvert Version 60efd76
<configuration xmlns:xsi="http://www.w3.org/2001/XMLSchema-instance" xsi:noNamespaceSchemaLocation="http://sumo.dlr.de/xsd/netconvertConfiguration.xsd">

    <input>
        <sumo-net-file value="bologna.net.xml"/>
    </input>

    <output>
        <plain-output-prefix value="bologna"/>
    </output>

    <processing>
        <no-turnarounds value="true"/>
        <offset.disable-normalization value="true"/>
        <lefthand value="false"/>
        <junctions.corner-detail value="0"/>
        <rectangular-lane-cut value="false"/>
        <walkingareas value="false"/>
    </processing>

</configuration>
-->

<connections version="0.27" xmlns:xsi="http://www.w3.org/2001/XMLSchema-instance" xsi:noNamespaceSchemaLocation="http://sumo.dlr.de/xsd/connections_file.xsd">
    <connection from="-105068052" to="24917649#2" fromLane="0" toLane="0"/>
    <connection from="-105068052" to="105068052" fromLane="0" toLane="0"/>

    <connection from="-105068057" to="-105068052" fromLane="0" toLane="0"/>
    <connection from="-105068057" to="105068057" fromLane="0" toLane="0"/>

    <connection from="-105956783#0" to="-82479088#1" fromLane="0" toLane="0"/>
    <connection from="-105956783#0" to="105956783#0" fromLane="0" toLane="0"/>

    <connection from="-105956783#1" to="153639949" fromLane="0" toLane="0"/>
    <connection from="-105956783#1" to="-105956783#0" fromLane="0" toLane="0"/>
    <connection from="-105956783#1" to="105956783#1" fromLane="0" toLane="0"/>

    <connection from="-105956789" to="-105956792" fromLane="0" toLane="0"/>
    <connection from="-105956789" to="105956789" fromLane="0" toLane="0"/>

    <connection from="-105956792" to="-105956818#0" fromLane="0" toLane="0"/>
    <connection from="-105956792" to="105956818#1" fromLane="0" toLane="0"/>
    <connection from="-105956792" to="105956792" fromLane="0" toLane="0"/>

    <connection from="-105956803#0" to="-153639949" fromLane="0" toLane="0"/>
    <connection from="-105956803#0" to="105956803#0" fromLane="0" toLane="0"/>

    <connection from="-105956803#1" to="-105956803#0" fromLane="0" toLane="0"/>
    <connection from="-105956803#1" to="105956803#1" fromLane="0" toLane="0"/>

    <connection from="-105956818#0" to="-105956818#1" fromLane="0" toLane="0"/>
    <connection from="-105956818#0" to="105956818#0" fromLane="0" toLane="0"/>

    <connection from="-105956818#1" to="105956792" fromLane="0" toLane="0"/>
    <connection from="-105956818#1" to="-105956818#0" fromLane="0" toLane="0"/>
    <connection from="-105956818#1" to="105956818#1" fromLane="0" toLane="0"/>

    <connection from="-107222545#0" to="-107222545#3" fromLane="0" toLane="0"/>
    <connection from="-107222545#0" to="107222545#0" fromLane="0" toLane="0"/>

    <connection from="-107222545#1" to="-107222545#0" fromLane="0" toLane="0"/>
    <connection from="-107222545#1" to="-79435002" fromLane="0" toLane="0"/>
    <connection from="-107222545#1" to="107222545#1" fromLane="0" toLane="0"/>

    <connection from="-107222545#2" to="-107222545#1" fromLane="0" toLane="0"/>
    <connection from="-107222545#2" to="79435011" fromLane="0" toLane="0"/>
    <connection from="-107222545#2" to="107222545#2" fromLane="0" toLane="0"/>

    <connection from="-107222545#3" to="-107222545#2" fromLane="0" toLane="0"/>
    <connection from="-107222545#3" to="79435042" fromLane="0" toLane="0"/>
    <connection from="-107222545#3" to="107222545#3" fromLane="0" toLane="0"/>

    <connection from="-107222546#0" to="107222546#0" fromLane="0" toLane="0"/>
    <connection from="-107222546#0" to="-107222546#1" fromLane="0" toLane="0"/>

    <connection from="-107222546#1" to="107222546#1" fromLane="0" toLane="0"/>
    <connection from="-107222546#1" to="-107222546#0" fromLane="0" toLane="0"/>
    <connection from="-107222546#1" to="-79435011" fromLane="0" toLane="0"/>

    <connection from="-110057082#0" to="110057082#0" fromLane="0" toLane="0"/>

    <connection from="-110057082#1" to="-110057082#0" fromLane="0" toLane="0"/>
    <connection from="-110057082#1" to="-251677521" fromLane="0" toLane="0"/>
    <connection from="-110057082#1" to="110057082#1" fromLane="0" toLane="0"/>

    <connection from="-110057082#2" to="-110057082#1" fromLane="0" toLane="0"/>
    <connection from="-110057082#2" to="251677522" fromLane="0" toLane="0"/>
    <connection from="-110057082#2" to="110057082#2" fromLane="0" toLane="0"/>

    <connection from="-110057082#3" to="-110057082#2" fromLane="0" toLane="0"/>
    <connection from="-110057082#3" to="110057082#3" fromLane="0" toLane="0"/>

    <connection from="-111651678#0" to="24802988#6" fromLane="0" toLane="0"/>
    <connection from="-111651678#0" to="111651678#0" fromLane="0" toLane="0"/>

    <connection from="-111651678#1" to="-111651678#0" fromLane="0" toLane="0"/>
    <connection from="-111651678#1" to="111651678#1" fromLane="0" toLane="0"/>

    <connection from="-116417076#0" to="23066741#1" fromLane="0" toLane="0"/>
    <connection from="-116417076#0" to="116417076#0" fromLane="0" toLane="0"/>

    <connection from="-116417076#1" to="-116417076#0" fromLane="0" toLane="0"/>
    <connection from="-116417076#1" to="116417076#1" fromLane="0" toLane="0"/>

    <connection from="-122270354" to="122270354" fromLane="0" toLane="0"/>

    <connection from="-122270357" to="122270357" fromLane="0" toLane="0"/>

    <connection from="-126257137#0" to="84690463#2" fromLane="0" toLane="0"/>
    <connection from="-126257137#0" to="126257137#0" fromLane="0" toLane="0"/>

    <connection from="-126257137#1" to="-126257137#0" fromLane="0" toLane="0"/>
    <connection from="-126257137#1" to="165253592#0" fromLane="0" toLane="0"/>
    <connection from="-126257137#1" to="126257137#1" fromLane="0" toLane="0"/>

    <connection from="-126257137#2" to="75356289" fromLane="0" toLane="0"/>
    <connection from="-126257137#2" to="-126257137#1" fromLane="0" toLane="0"/>
    <connection from="-126257137#2" to="126257137#2" fromLane="0" toLane="0"/>

    <connection from="-136026918#0" to="97111251#1" fromLane="0" toLane="0"/>
    <connection from="-136026918#0" to="136026918#0" fromLane="0" toLane="0"/>

    <connection from="-136026918#1" to="-136026918#0" fromLane="0" toLane="0"/>
    <connection from="-136026918#1" to="136026918#1" fromLane="0" toLane="0"/>

    <connection from="-136026918#2" to="-136026918#1" fromLane="0" toLane="0"/>
    <connection from="-136026918#2" to="136026918#2" fromLane="0" toLane="0"/>

    <connection from="-138943290" to="138943290" fromLane="0" toLane="0"/>

    <connection from="-139193226" to="139193226" fromLane="0" toLane="0"/>

    <connection from="-141265570" to="-283010968#1" fromLane="0" toLane="0"/>
    <connection from="-141265570" to="141265570" fromLane="0" toLane="0"/>

    <connection from="-142436090" to="-84889281#1" fromLane="0" toLane="0"/>
    <connection from="-142436090" to="142436090" fromLane="0" toLane="0"/>

    <connection from="-145440153#0" to="-283010968#0" fromLane="0" toLane="0"/>
    <connection from="-145440153#0" to="283010968#1" fromLane="0" toLane="0"/>
    <connection from="-145440153#0" to="145440153#0" fromLane="0" toLane="0"/>

    <connection from="-145440153#1" to="-145440153#0" fromLane="0" toLane="0"/>
    <connection from="-145440153#1" to="145440153#1" fromLane="0" toLane="0"/>

    <connection from="-145440155#0" to="-145440155#1" fromLane="0" toLane="0"/>
    <connection from="-145440155#0" to="-145440153#1" fromLane="0" toLane="0"/>
    <connection from="-145440155#0" to="145440155#0" fromLane="0" toLane="0"/>

    <connection from="-145440155#1" to="-145440155#0" fromLane="0" toLane="0"/>
    <connection from="-145440155#1" to="145440155#1" fromLane="0" toLane="0"/>

    <connection from="-148739873#0" to="37956147#3" fromLane="0" toLane="0"/>
    <connection from="-148739873#0" to="148739873#0" fromLane="0" toLane="0"/>

    <connection from="-148739873#1" to="-148739873#0" fromLane="0" toLane="0"/>
    <connection from="-148739873#1" to="148739873#1" fromLane="0" toLane="0"/>

    <connection from="-149811078" to="-149811080" fromLane="0" toLane="0"/>
    <connection from="-149811078" to="149811078" fromLane="0" toLane="0"/>

    <connection from="-149811080" to="149811080" fromLane="0" toLane="0"/>

    <connection from="-149811082#0" to="-149811078" fromLane="0" toLane="0"/>
    <connection from="-149811082#0" to="-149811082#1" fromLane="0" toLane="0"/>
    <connection from="-149811082#0" to="149811082#0" fromLane="0" toLane="0"/>

    <connection from="-149811082#1" to="-149811082#0" fromLane="0" toLane="0"/>
    <connection from="-149811082#1" to="149811082#1" fromLane="0" toLane="0"/>

    <connection from="-150380279" to="-150380280" fromLane="0" toLane="0"/>
    <connection from="-150380279" to="150380279" fromLane="0" toLane="0"/>

    <connection from="-150380280" to="150380280" fromLane="0" toLane="0"/>

    <connection from="-150380286#0" to="-150380279" fromLane="0" toLane="0"/>
    <connection from="-150380286#0" to="-150380286#1" fromLane="0" toLane="0"/>
    <connection from="-150380286#0" to="150380286#0" fromLane="0" toLane="0"/>

    <connection from="-150380286#1" to="-150380286#0" fromLane="0" toLane="0"/>
    <connection from="-150380286#1" to="150380286#1" fromLane="0" toLane="0"/>

    <connection from="-150959946" to="-150959952#1" fromLane="0" toLane="0"/>
    <connection from="-150959946" to="150959946" fromLane="0" toLane="0"/>

    <connection from="-150959948" to="-111651678#1" fromLane="0" toLane="0"/>
    <connection from="-150959948" to="150959948" fromLane="0" toLane="0"/>

    <connection from="-150959952#0" to="30076096#2" fromLane="0" toLane="1"/>
    <connection from="-150959952#0" to="30076096#2" fromLane="0" toLane="2"/>
    <connection from="-150959952#0" to="150959952#0" fromLane="0" toLane="0"/>

    <connection from="-150959952#1" to="-150959952#0" fromLane="0" toLane="0"/>
    <connection from="-150959952#1" to="150959952#1" fromLane="0" toLane="0"/>

    <connection from="-150959953#0" to="37956147#2" fromLane="0" toLane="0"/>
    <connection from="-150959953#0" to="150959953#0" fromLane="0" toLane="0"/>

    <connection from="-150959953#1" to="-150959953#0" fromLane="0" toLane="0"/>
    <connection from="-150959953#1" to="150959953#1" fromLane="0" toLane="0"/>

    <connection from="-150959954" to="150959955#1" fromLane="0" toLane="0"/>
    <connection from="-150959954" to="-150959955#0" fromLane="0" toLane="0"/>
    <connection from="-150959954" to="150959954" fromLane="0" toLane="0"/>

    <connection from="-150959955#0" to="-150959946" fromLane="0" toLane="0"/>
    <connection from="-150959955#0" to="150959955#0" fromLane="0" toLane="0"/>

    <connection from="-150959955#1" to="-150959955#0" fromLane="0" toLane="0"/>
    <connection from="-150959955#1" to="150959954" fromLane="0" toLane="0"/>
    <connection from="-150959955#1" to="150959955#1" fromLane="0" toLane="0"/>

    <connection from="-150959956#0" to="37956147#4" fromLane="0" toLane="0"/>
    <connection from="-150959956#0" to="150959956#0" fromLane="0" toLane="0"/>

    <connection from="-150959956#1" to="-150959956#0" fromLane="0" toLane="0"/>
    <connection from="-150959956#1" to="150959956#1" fromLane="0" toLane="0"/>

    <connection from="-151151172#0" to="23857969#3" fromLane="0" toLane="0"/>
    <connection from="-151151172#0" to="151151172#0" fromLane="0" toLane="0"/>

    <connection from="-151151172#1" to="-151151172#0" fromLane="0" toLane="0"/>
    <connection from="-151151172#1" to="151151172#1" fromLane="0" toLane="0"/>

    <connection from="-151331992" to="-151331995#1" fromLane="0" toLane="0"/>
    <connection from="-151331992" to="151331992" fromLane="0" toLane="0"/>

    <connection from="-151331995#0" to="23066966#1" fromLane="0" toLane="0"/>
    <connection from="-151331995#0" to="151331995#0" fromLane="0" toLane="0"/>

    <connection from="-151331995#1" to="-151331995#0" fromLane="0" toLane="0"/>
    <connection from="-151331995#1" to="151331995#1" fromLane="0" toLane="0"/>

    <connection from="-151331996#0" to="-151331996#1" fromLane="0" toLane="0"/>
    <connection from="-151331996#0" to="-151331992" fromLane="0" toLane="0"/>
    <connection from="-151331996#0" to="151331996#0" fromLane="0" toLane="0"/>

    <connection from="-151331996#1" to="-151331996#0" fromLane="0" toLane="0"/>
    <connection from="-151331996#1" to="151331996#1" fromLane="0" toLane="0"/>

    <connection from="-153639941" to="-153639986" fromLane="0" toLane="0"/>
    <connection from="-153639941" to="153639941" fromLane="0" toLane="0"/>

    <connection from="-153639949" to="-105956783#0" fromLane="0" toLane="0"/>
    <connection from="-153639949" to="105956783#1" fromLane="0" toLane="0"/>
    <connection from="-153639949" to="153639949" fromLane="0" toLane="0"/>

    <connection from="-153639986" to="-105956783#1" fromLane="0" toLane="0"/>
    <connection from="-153639986" to="153639986" fromLane="0" toLane="0"/>

    <connection from="-154140545#0" to="154140543#0" fromLane="0" toLane="0"/>
    <connection from="-154140545#0" to="154140545#0" fromLane="0" toLane="0"/>

    <connection from="-154140545#1" to="-154140545#0" fromLane="0" toLane="0"/>
    <connection from="-154140545#1" to="68286127#1" fromLane="0" toLane="2"/>
    <connection from="-154140545#1" to="154140545#1" fromLane="0" toLane="0"/>

    <connection from="-155428148#0" to="-24771369#2" fromLane="0" toLane="0"/>
    <connection from="-155428148#0" to="155428148#0" fromLane="0" toLane="0"/>

    <connection from="-155428148#1" to="-155428148#0" fromLane="0" toLane="0"/>
    <connection from="-155428148#1" to="155428148#1" fromLane="0" toLane="0"/>

    <connection from="-155428150#0" to="24771369#0" fromLane="0" toLane="0"/>
    <connection from="-155428150#0" to="155428150#0" fromLane="0" toLane="0"/>

    <connection from="-155428150#1" to="-155428150#0" fromLane="0" toLane="0"/>
    <connection from="-155428150#1" to="155428150#1" fromLane="0" toLane="0"/>

    <connection from="-155428153" to="-24771369#0" fromLane="0" toLane="0"/>
    <connection from="-155428153" to="24771369#1" fromLane="0" toLane="0"/>
    <connection from="-155428153" to="155428153" fromLane="0" toLane="0"/>

    <connection from="-155428155#0" to="24771369#2" fromLane="0" toLane="0"/>
    <connection from="-155428155#0" to="-24771369#1" fromLane="0" toLane="0"/>
    <connection from="-155428155#0" to="155428155#0" fromLane="0" toLane="0"/>

    <connection from="-155428155#1" to="155428159" fromLane="0" toLane="0"/>
    <connection from="-155428155#1" to="-155428155#0" fromLane="0" toLane="0"/>
    <connection from="-155428155#1" to="155428155#1" fromLane="0" toLane="0"/>

    <connection from="-155428159" to="-155428155#0" fromLane="0" toLane="0"/>
    <connection from="-155428159" to="155428155#1" fromLane="0" toLane="0"/>
    <connection from="-155428159" to="155428159" fromLane="0" toLane="0"/>

    <connection from="-162103987" to="-162103988#1" fromLane="0" toLane="0"/>
    <connection from="-162103987" to="162103987" fromLane="0" toLane="0"/>

    <connection from="-162103988#0" to="24802988#10" fromLane="0" toLane="0"/>
    <connection from="-162103988#0" to="162103988#0" fromLane="0" toLane="0"/>

    <connection from="-162103988#1" to="-162103988#0" fromLane="0" toLane="0"/>
    <connection from="-162103988#1" to="162103988#1" fromLane="0" toLane="0"/>

    <connection from="-165253592#0" to="126257137#1" fromLane="0" toLane="0"/>
    <connection from="-165253592#0" to="-126257137#0" fromLane="0" toLane="0"/>
    <connection from="-165253592#0" to="165253592#0" fromLane="0" toLane="0"/>

    <connection from="-165253592#1" to="-165253592#0" fromLane="0" toLane="0"/>
    <connection from="-165253592#1" to="165253592#1" fromLane="0" toLane="0"/>

    <connection from="-177180085" to="-141265570" fromLane="0" toLane="0"/>
    <connection from="-177180085" to="32359806#0" fromLane="0" toLane="0"/>
    <connection from="-177180085" to="177180085" fromLane="0" toLane="0"/>

    <connection from="-195832706" to="195832706" fromLane="0" toLane="0"/>

    <connection from="-209832706#0" to="-68286128#0" fromLane="0" toLane="0"/>
    <connection from="-209832706#0" to="209832706#0" fromLane="0" toLane="0"/>
    <connection from="-209832706#0" to="68286128#1" fromLane="0" toLane="0"/>

    <connection from="-209832706#1" to="-209832706#0" fromLane="0" toLane="0"/>
    <connection from="-209832706#1" to="209832706#1" fromLane="0" toLane="0"/>

    <connection from="-209832708#0" to="-209832708#1" fromLane="0" toLane="0"/>
    <connection from="-209832708#0" to="-209832706#1" fromLane="0" toLane="0"/>
    <connection from="-209832708#0" to="209832708#0" fromLane="0" toLane="0"/>

    <connection from="-209832708#1" to="-209832708#0" fromLane="0" toLane="0"/>
    <connection from="-209832708#1" to="209832708#1" fromLane="0" toLane="0"/>

    <connection from="-226623957" to="-165253592#1" fromLane="0" toLane="0"/>
    <connection from="-226623957" to="226623957" fromLane="0" toLane="0"/>

    <connection from="-228044900" to="-24805443#1" fromLane="0" toLane="0"/>
    <connection from="-228044900" to="228044900" fromLane="0" toLane="0"/>

    <connection from="-228044902" to="-228044900" fromLane="0" toLane="0"/>
    <connection from="-228044902" to="228044902" fromLane="0" toLane="0"/>

    <connection from="-229258869#0" to="-150959953#1" fromLane="0" toLane="0"/>
    <connection from="-229258869#0" to="229258869#0" fromLane="0" toLane="0"/>

    <connection from="-229258869#1" to="-229258869#0" fromLane="0" toLane="0"/>
    <connection from="-229258869#1" to="229258869#1" fromLane="0" toLane="0"/>

    <connection from="-230596875" to="233089430#1" fromLane="0" toLane="0"/>
    <connection from="-230596875" to="-233089430#0" fromLane="0" toLane="0"/>
    <connection from="-230596875" to="230596875" fromLane="0" toLane="0"/>

    <connection from="-233089430#0" to="233089430#0" fromLane="0" toLane="0"/>

    <connection from="-233089430#1" to="-233089430#0" fromLane="0" toLane="0"/>
    <connection from="-233089430#1" to="230596875" fromLane="0" toLane="0"/>
    <connection from="-233089430#1" to="233089430#1" fromLane="0" toLane="0"/>

    <connection from="-23794856" to="-177180085" fromLane="0" toLane="0"/>
    <connection from="-23794856" to="23794856" fromLane="0" toLane="0"/>

    <connection from="-23951767#0" to="23951767#0" fromLane="0" toLane="0"/>

    <connection from="-23951767#1" to="-23951767#0" fromLane="0" toLane="0"/>
    <connection from="-23951767#1" to="23951767#1" fromLane="0" toLane="0"/>

    <connection from="-23951767#2" to="498631939#0" fromLane="0" toLane="0"/>
    <connection from="-23951767#2" to="-23951767#1" fromLane="0" toLane="0"/>
    <connection from="-23951767#2" to="23951767#2" fromLane="0" toLane="0"/>

    <connection from="-23951767#3" to="-23951767#2" fromLane="0" toLane="0"/>
    <connection from="-23951767#3" to="23951767#3" fromLane="0" toLane="0"/>

    <connection from="-23951806#0" to="25578800" fromLane="0" toLane="0"/>
    <connection from="-23951806#0" to="-393170561#2" fromLane="0" toLane="0"/>
    <connection from="-23951806#0" to="23951806#0" fromLane="0" toLane="0"/>

    <connection from="-23951806#1" to="-23951806#0" fromLane="0" toLane="0"/>
    <connection from="-23951806#1" to="23951806#1" fromLane="0" toLane="0"/>

    <connection from="-239994668" to="239994668" fromLane="0" toLane="0"/>

    <connection from="-24771369#0" to="155428150#0" fromLane="0" toLane="0"/>
    <connection from="-24771369#0" to="24771369#0" fromLane="0" toLane="0"/>

    <connection from="-24771369#1" to="155428153" fromLane="0" toLane="0"/>
    <connection from="-24771369#1" to="-24771369#0" fromLane="0" toLane="0"/>
    <connection from="-24771369#1" to="24771369#1" fromLane="0" toLane="0"/>

    <connection from="-24771369#2" to="-24771369#1" fromLane="0" toLane="0"/>
    <connection from="-24771369#2" to="155428155#0" fromLane="0" toLane="0"/>
    <connection from="-24771369#2" to="24771369#2" fromLane="0" toLane="0"/>

    <connection from="-24772501" to="24772501" fromLane="0" toLane="0"/>

    <connection from="-24805442#0" to="-155428148#1" fromLane="0" toLane="0"/>
    <connection from="-24805442#0" to="24805442#0" fromLane="0" toLane="0"/>

    <connection from="-24805442#1" to="-24805442#0" fromLane="0" toLane="0"/>
    <connection from="-24805442#1" to="24805442#1" fromLane="0" toLane="0"/>

    <connection from="-24805442#2" to="-24805442#1" fromLane="0" toLane="0"/>
    <connection from="-24805442#2" to="24805442#2" fromLane="0" toLane="0"/>

    <connection from="-24805443#0" to="24581835#1" fromLane="0" toLane="0"/>
    <connection from="-24805443#0" to="24805443#0" fromLane="0" toLane="0"/>

    <connection from="-24805443#1" to="-24805443#0" fromLane="0" toLane="0"/>
    <connection from="-24805443#1" to="24805443#1" fromLane="0" toLane="0"/>

    <connection from="-24917590#0" to="78785864#2" fromLane="0" toLane="0"/>
    <connection from="-24917590#0" to="-24917590#1" fromLane="0" toLane="0"/>
    <connection from="-24917590#0" to="24917590#0" fromLane="0" toLane="0"/>

    <connection from="-24917590#1" to="-24917590#0" fromLane="0" toLane="0"/>
    <connection from="-24917590#1" to="24917590#1" fromLane="0" toLane="0"/>
    <connection from="-24917590#1" to="78785864#1" fromLane="0" toLane="0"/>

    <connection from="-251677521" to="-255826014#1" fromLane="0" toLane="0"/>
    <connection from="-251677521" to="251677521" fromLane="0" toLane="0"/>

    <connection from="-251677522" to="110057082#2" fromLane="0" toLane="0"/>
    <connection from="-251677522" to="-110057082#1" fromLane="0" toLane="0"/>
    <connection from="-251677522" to="251677522" fromLane="0" toLane="0"/>

    <connection from="-251677524#0" to="-251677522" fromLane="0" toLane="0"/>
    <connection from="-251677524#0" to="251677524#0" fromLane="0" toLane="0"/>

    <connection from="-251677524#1" to="-251677524#0" fromLane="0" toLane="0"/>
    <connection from="-251677524#1" to="251677524#1" fromLane="0" toLane="0"/>

    <connection from="-251677525" to="-251677524#1" fromLane="0" toLane="0"/>
    <connection from="-251677525" to="251677525" fromLane="0" toLane="0"/>

    <connection from="-25578768#0" to="25578768#0" fromLane="0" toLane="0"/>

    <connection from="-25578768#1" to="-25578768#0" fromLane="0" toLane="0"/>
    <connection from="-25578768#1" to="25578768#1" fromLane="0" toLane="0"/>

    <connection from="-25578800" to="-393170561#2" fromLane="0" toLane="0"/>
    <connection from="-25578800" to="23951806#0" fromLane="0" toLane="0"/>
    <connection from="-25578800" to="25578800" fromLane="0" toLane="0"/>

    <connection from="-255826014#0" to="-251677525" fromLane="0" toLane="0"/>
    <connection from="-255826014#0" to="255826014#0" fromLane="0" toLane="0"/>

    <connection from="-255826014#1" to="-255826014#0" fromLane="0" toLane="0"/>
    <connection from="-255826014#1" to="255826014#1" fromLane="0" toLane="0"/>

    <connection from="-259938229#0" to="225657864#2" fromLane="0" toLane="0"/>
    <connection from="-259938229#0" to="259938229#0" fromLane="0" toLane="0"/>

    <connection from="-259938229#1" to="-259938229#0" fromLane="0" toLane="0"/>
    <connection from="-259938229#1" to="259938229#1" fromLane="0" toLane="0"/>

    <connection from="-263697205" to="-83738067#2" fromLane="0" toLane="0"/>
    <connection from="-263697205" to="83738067#3" fromLane="0" toLane="0"/>
    <connection from="-263697205" to="263697205" fromLane="0" toLane="0"/>

    <connection from="-268278353#0" to="268278353#0" fromLane="0" toLane="0"/>

    <connection from="-268278353#1" to="-268278353#0" fromLane="0" toLane="0"/>
    <connection from="-268278353#1" to="268278353#1" fromLane="0" toLane="0"/>

    <connection from="-27503570#0" to="27742894#0" fromLane="0" toLane="0"/>
    <connection from="-27503570#0" to="24909193#0" fromLane="0" toLane="0"/>
    <connection from="-27503570#0" to="27503570#0" fromLane="0" toLane="0"/>

    <connection from="-27503570#1" to="133370605#1" fromLane="0" toLane="0"/>
    <connection from="-27503570#1" to="-27503570#0" fromLane="0" toLane="0"/>
    <connection from="-27503570#1" to="27503570#1" fromLane="0" toLane="0"/>

    <connection from="-27503570#2" to="-27503570#1" fromLane="0" toLane="0"/>
    <connection from="-27503570#2" to="27503570#2" fromLane="0" toLane="0"/>

    <connection from="-27503570#3" to="-27503570#2" fromLane="0" toLane="0"/>
    <connection from="-27503570#3" to="-80562924#3" fromLane="0" toLane="0"/>
    <connection from="-27503570#3" to="27503570#3" fromLane="0" toLane="0"/>

    <connection from="-27503570#4" to="-27503570#3" fromLane="0" toLane="0"/>
    <connection from="-27503570#4" to="27503570#4" fromLane="0" toLane="0"/>

    <connection from="-283010968#0" to="283010968#0" fromLane="0" toLane="0"/>

    <connection from="-283010968#1" to="145440153#0" fromLane="0" toLane="0"/>
    <connection from="-283010968#1" to="-283010968#0" fromLane="0" toLane="0"/>
    <connection from="-283010968#1" to="283010968#1" fromLane="0" toLane="0"/>

    <connection from="-35209301#0" to="35209301#0" fromLane="0" toLane="0"/>

    <connection from="-35209301#1" to="-35209301#0" fromLane="0" toLane="0"/>
    <connection from="-35209301#1" to="35209301#1" fromLane="0" toLane="0"/>

    <connection from="-392747172#0" to="392747172#0" fromLane="0" toLane="0"/>

    <connection from="-392747172#1" to="-392747172#0" fromLane="0" toLane="0"/>
    <connection from="-392747172#1" to="392747172#1" fromLane="0" toLane="0"/>

    <connection from="-392747173#0" to="392748758#0" fromLane="0" toLane="0"/>
    <connection from="-392747173#0" to="-392747174#1" fromLane="0" toLane="0"/>
    <connection from="-392747173#0" to="393170548" fromLane="0" toLane="0"/>
    <connection from="-392747173#0" to="392747173#0" fromLane="0" toLane="0"/>

    <connection from="-392747173#1" to="-392747173#0" fromLane="0" toLane="0"/>
    <connection from="-392747173#1" to="392747173#1" fromLane="0" toLane="0"/>

    <connection from="-392747174#0" to="-392747172#1" fromLane="0" toLane="0"/>
    <connection from="-392747174#0" to="392747174#0" fromLane="0" toLane="0"/>

    <connection from="-392747174#1" to="-393170565#0" fromLane="0" toLane="0"/>
    <connection from="-392747174#1" to="-392747174#0" fromLane="0" toLane="0"/>
    <connection from="-392747174#1" to="393170565#1" fromLane="0" toLane="0"/>
    <connection from="-392747174#1" to="392747174#1" fromLane="0" toLane="0"/>

    <connection from="-392748758#0" to="-392747174#1" fromLane="0" toLane="0"/>
    <connection from="-392748758#0" to="393170548" fromLane="0" toLane="0"/>
    <connection from="-392748758#0" to="392747173#0" fromLane="0" toLane="0"/>
    <connection from="-392748758#0" to="392748758#0" fromLane="0" toLane="0"/>

    <connection from="-392748758#1" to="-393170561#0" fromLane="0" toLane="0"/>
    <connection from="-392748758#1" to="-392748758#0" fromLane="0" toLane="0"/>
    <connection from="-392748758#1" to="393170561#1" fromLane="0" toLane="0"/>
    <connection from="-392748758#1" to="392748758#1" fromLane="0" toLane="0"/>

    <connection from="-392784464#0" to="-195832706" fromLane="0" toLane="0"/>
    <connection from="-392784464#0" to="392784464#0" fromLane="0" toLane="0"/>

    <connection from="-392784464#1" to="-392784464#0" fromLane="0" toLane="0"/>
    <connection from="-392784464#1" to="392784464#1" fromLane="0" toLane="0"/>

    <connection from="-392784464#2" to="-392784464#1" fromLane="0" toLane="0"/>
    <connection from="-392784464#2" to="392784465" fromLane="0" toLane="0"/>
    <connection from="-392784464#2" to="392784464#2" fromLane="0" toLane="0"/>

    <connection from="-392784465" to="392784464#2" fromLane="0" toLane="0"/>
    <connection from="-392784465" to="-392784464#1" fromLane="0" toLane="0"/>
    <connection from="-392784465" to="392784465" fromLane="0" toLane="0"/>

    <connection from="-392784466" to="-392784464#2" fromLane="0" toLane="0"/>
    <connection from="-392784466" to="392784466" fromLane="0" toLane="0"/>

    <connection from="-393170548" to="392747173#0" fromLane="0" toLane="0"/>
    <connection from="-393170548" to="392748758#0" fromLane="0" toLane="0"/>
    <connection from="-393170548" to="-392747174#1" fromLane="0" toLane="0"/>
    <connection from="-393170548" to="393170548" fromLane="0" toLane="0"/>

    <connection from="-393170561#0" to="-392784466" fromLane="0" toLane="0"/>
    <connection from="-393170561#0" to="-23951767#3" fromLane="0" toLane="0"/>
    <connection from="-393170561#0" to="393170565#0" fromLane="0" toLane="0"/>
    <connection from="-393170561#0" to="393170561#0" fromLane="0" toLane="0"/>

    <connection from="-393170561#1" to="392748758#1" fromLane="0" toLane="0"/>
    <connection from="-393170561#1" to="-393170561#0" fromLane="0" toLane="0"/>
    <connection from="-393170561#1" to="-392748758#0" fromLane="0" toLane="0"/>
    <connection from="-393170561#1" to="393170561#1" fromLane="0" toLane="0"/>

    <connection from="-393170561#2" to="-393170561#1" fromLane="0" toLane="0"/>
    <connection from="-393170561#2" to="393170561#2" fromLane="0" toLane="0"/>

    <connection from="-393170565#0" to="393170561#0" fromLane="0" toLane="0"/>
    <connection from="-393170565#0" to="-392784466" fromLane="0" toLane="0"/>
    <connection from="-393170565#0" to="-23951767#3" fromLane="0" toLane="0"/>
    <connection from="-393170565#0" to="393170565#0" fromLane="0" toLane="0"/>

    <connection from="-393170565#1" to="392747174#1" fromLane="0" toLane="0"/>
    <connection from="-393170565#1" to="-393170565#0" fromLane="0" toLane="0"/>
    <connection from="-393170565#1" to="-392747174#0" fromLane="0" toLane="0"/>