<?xml version="1.0" encoding="UTF-8"?>

<!-- generated on Thu Dec 13 13:49:03 2018 by Eclipse SUMO duarouter Version 60efd76
<configuration xmlns:xsi="http://www.w3.org/2001/XMLSchema-instance" xsi:noNamespaceSchemaLocation="http://sumo.dlr.de/xsd/duarouterConfiguration.xsd">

    <input>
        <net-file value="trento.net.xml"/>
        <route-files value="trips.trips.xml"/>
    </input>

    <output>
        <output-file value="trento_50.rou.xml"/>
        <alternatives-output value="trento_50.rou.alt.xml"/>
    </output>

    <processing>
        <ignore-errors value="true"/>
    </processing>

    <time>
        <begin value="0"/>
        <end value="3600"/>
    </time>

    <report>
        <no-warnings value="true"/>
        <no-step-log value="true"/>
    </report>

</configuration>
-->

<routes xmlns:xsi="http://www.w3.org/2001/XMLSchema-instance" xsi:noNamespaceSchemaLocation="http://sumo.dlr.de/xsd/routes_file.xsd">
    <vehicle id="route1" depart="50.00">
        <route edges="75356279#1 240092039#0 240092039#1 240092039#2 240092039#3 97084819 84690453#0 84690453#1 84690454#0"/>
    </vehicle>
    <vehicle id="route3" depart="150.00">
        <route edges="23066740#0 23066740#1 177180084 198530824 223006673#0 223006673#1 24917678#0 24917678#1 23763916 122602437 223001538 24917570 78785835"/>
    </vehicle>
    <vehicle id="route4" depart="200.00">
        <route edges="43760621#1 43760621#2 43760621#3 43760621#4 43760621#5 43760621#6 43760621#7 27742894#0 27742894#1 97251510#0 97251510#1 97251510#2 97111251#0 97111251#1 97111251#2 97111251#3 97111251#4 68286129#0 68286129#1 240092039#0 240092039#1 240092039#2 240092039#3 97084819 84690453#0 84690453#1"/>
    </vehicle>
    <vehicle id="route5" depart="250.00">
        <route edges="43760621#2 43760621#3 43760621#4 43760621#5 43760621#6 43760621#7 24909193#0 24909193#1 24909193#2 24909193#3 24909193#4 68286127#0 68286127#1 68286127#2 68286127#3 68286127#4 68286127#5 68286127#6 23800071#0 23800071#1 23800071#2 23800071#3 23800071#4 31301718#0 31301718#1 31301718#2 72847149#0 72847149#1 23066740#0 23066740#1 177180084 198530824 223006673#0 223006673#1 24771360#0 24771360#1 24771360#2 24771360#3 24802988#0 24802988#1 24802988#2 24802988#3 24802988#4 24802988#5 24802988#6 24802988#7 24802988#8 24802988#9"/>
    </vehicle>
    <vehicle id="route8" depart="400.00">
        <route edges="-155428150#0 155428150#0 155428150#1 24789912#1 24789912#2 84690459 240607362 240092040#0 240092040#1 240092040#2 84690453#0 84690453#1 84690461#0 84690461#1 84690461#2 30076096#0 30076096#1 30076096#2 30076096#3 30076096#4 68286127#0 68286127#1 68286127#2 68286127#3 68286127#4 68286127#5 68286127#6 23800071#0 23800071#1 23800071#2 23800071#3 23800071#4 31301718#0 31301718#1 31301718#2 72847149#0 72847149#1 23066740#0 23066740#1 177180084 198530824 223006672#0 223006672#1 223006672#2 283010968#0 283010968#1 141265570 177180085 23794856 141265569 110057082#0 -110057082#0"/>
    </vehicle>
    <vehicle id="route9" depart="450.00">
        <route edges="223006673#0 223006673#1 24771360#0 24771360#1 24771360#2 24771360#3 24802988#0 24802988#1 24802988#2 24802988#3 24802988#4 24802988#5 24802988#6 24802988#7 24802988#8 24802988#9 24802988#10 24802988#11 68286129#0 68286129#1 240092039#0 240092039#1 240092039#2 240092039#3 84690452#0 84690452#1 84690452#2 84690448#0"/>
    </vehicle>
    <vehicle id="route10" depart="500.00">
        <route edges="23800071#0 23800071#1 23800071#2 23800071#3 23800071#4 31301718#0 31301718#1 31301718#2 72847149#0 72847149#1 23066740#0 23066740#1 177180084"/>
    </vehicle>
    <vehicle id="route12" depart="600.00">
        <route edges="24805443#0 -24805443#0 24581835#1 24581835#2 -155428148#1 -155428148#0 -24771369#2 -24771369#1 -24771369#0 155428150#0 155428150#1 24789912#1 24789912#2 84690459 240607362 240092040#0 240092040#1 240092040#2 84690453#0 84690453#1 84690461#0 84690461#1 84690461#2 30076096#0 30076096#1 30076096#2 30076096#3 30076096#4 68286127#0 68286127#1 68286127#2 68286127#3 68286127#4 68286127#5 68286127#6 23800071#0 23800071#1 23800071#2 23800071#3 23800071#4 31301718#0 31301718#1 31301718#2 72847149#0 72847149#1 23066740#0 23066740#1 177180084 198530824 223006672#0 223006672#1 223006672#2 283010968#0 283010968#1 141265570 177180085 23794856 141265569 110057082#0"/>
    </vehicle>
    <vehicle id="route14" depart="700.00">
        <route edges="23857969#1 -24805442#2 -24805442#1 -24805442#0 -155428148#1 -155428148#0 -24771369#2 -24771369#1 -24771369#0 155428150#0 155428150#1 24789912#1 24789912#2 84690459 240607362 240092040#0 240092040#1 240092040#2 84690453#0 84690453#1 84690461#0 84690461#1 84690461#2 30076096#0 30076096#1 30076096#2 30076096#3 30076096#4 68286127#0 68286127#1 68286127#2 68286127#3 68286127#4 68286127#5 68286127#6 23800071#0 23800071#1 23800071#2 23800071#3 23800071#4 31301718#0 31301718#1 31301718#2 72847149#0 72847149#1 23066740#0 23066740#1 177180084 198530824 223006673#0 223006673#1 24771360#0 24771360#1 24771360#2 24771360#3"/>
    </vehicle>
    <vehicle id="route16" depart="800.00">
        <route edges="240092039#0 240092039#1 240092039#2 240092039#3 84690452#0 84690452#1 84690452#2 240092038 84690455 24789912#0 -155428150#1 -155428150#0 24771369#0"/>
    </vehicle>
    <vehicle id="route18" depart="900.00">
        <route edges="240092041#0 240092041#1 240092041#2 240092041#3 30076096#0 30076096#1 30076096#2 30076096#3 30076096#4 68286127#0"/>
    </vehicle>
    <vehicle id="route19" depart="950.00">
        <route edges="24095640 239979891 97121841#0 97121841#1 97121841#2 97121841#3 24771362#0 24771362#1 24771362#2 24802988#0 24802988#1 24802988#2 24802988#3 24802988#4 24802988#5 24802988#6 24802988#7 24802988#8 24802988#9 24802988#10 24802988#11 68286129#0 68286129#1 240092039#0 240092039#1 240092039#2 240092039#3 84690452#0 84690452#1 84690452#2 84690448#0 84690448#1 35209300"/>
    </vehicle>
    <vehicle id="route20" depart="1000.00">
        <route edges="97111251#2 97111251#3 97111251#4 68286129#0 68286129#1 240092039#0 240092039#1 240092039#2 240092039#3 97084819 84690453#0 84690453#1 84690461#0 84690461#1 84690461#2 30076096#0 30076096#1 30076096#2 30076096#3 30076096#4 68286127#0 68286127#1 68286127#2 68286127#3 68286127#4 68286127#5 68286127#6 23800071#0 23800071#1 23800071#2 23800071#3 23800071#4 31301718#0 31301718#1 31301718#2 72847149#0 72847149#1 23066740#0 23066740#1 177180084 198530824 223006672#0 223006672#1 223006672#2 283010968#0 283010968#1 141265570 177180085 23794856 141265569 110057082#0 110057082#1 110057082#2 110057082#3 -110057082#3"/>
    </vehicle>
    <vehicle id="route21" depart="1050.00">
        <route edges="97251510#2 97111251#0 97111251#1 97111251#2 97111251#3 97111251#4 68286129#0 68286129#1 240092039#0 240092039#1 240092039#2 240092039#3 97084819 84690453#0 84690453#1 84690461#0 84690461#1 84690461#2 30076096#0 30076096#1"/>
    </vehicle>
    <vehicle id="route22" depart="1100.00">
        <route edges="240092039#2 240092039#3 97084819 84690453#0 84690453#1 84690454#0"/>
    </vehicle>
    <vehicle id="route23" depart="1150.00">
        <route edges="24581835#1 24581835#2 -155428148#1 -155428148#0 -24771369#2 -24771369#1 -24771369#0 155428150#0 155428150#1 24789912#1 24789912#2 84690459 240607362 240092040#0 240092040#1 240092040#2"/>
    </vehicle>
    <vehicle id="route24" depart="1200.00">
        <route edges="27742894#0 27742894#1 97251510#0 97251510#1 97251510#2 97111251#0 97111251#1 97111251#2 97111251#3 97111251#4 68286129#0 68286129#1 240092039#0 240092039#1 240092039#2 240092039#3 97084819 84690453#0 84690453#1 84690461#0 84690461#1 84690461#2 30076096#0 30076096#1 30076096#2 30076096#3 30076096#4 68286127#0 68286127#1 68286127#2 68286127#3 68286127#4 68286127#5 68286127#6 23800071#0 23800071#1 23800071#2 23800071#3 23800071#4 31301718#0 31301718#1 31301718#2"/>
    </vehicle>
    <vehicle id="route27" depart="1350.00">
        <route edges="24802988#7 24802988#8 24802988#9 24802988#10 24802988#11 68286129#0 68286129#1 240092039#0 240092039#1 240092039#2"/>
    </vehicle>
    <vehicle id="route28" depart="1400.00">
        <route edges="23066740#0 23066740#1 177180084 198530824 223006673#0 223006673#1 24771360#0 24771360#1 24771360#2 24771360#3 24802988#0"/>
    </vehicle>
    <vehicle id="route30" depart="1500.00">
        <route edges="23952132#1 23952132#2 23952132#3 23952132#4 23952132#5 223006226 23800071#0 23800071#1 23800071#2 23800071#3 23800071#4 31301718#0 31301718#1 31301718#2 72847149#0 72847149#1 23066740#0 23066740#1 177180084 198530824 223006673#0 223006673#1 24917678#0 24917678#1 198530825#0 198530825#1 24917649#0 24917649#1"/>
    </vehicle>
    <vehicle id="route32" depart="1600.00">
        <route edges="43760621#6 43760621#7 27742894#0 27742894#1 97251510#0 97251510#1 97251510#2 97111251#0 97111251#1 97111251#2 97111251#3 97111251#4 68286129#0 68286129#1 240092039#0 240092039#1 240092039#2 240092039#3 97084819 84690453#0 84690453#1 84690461#0 -84690461#0"/>
    </vehicle>
    <vehicle id="route37" depart="1850.00">
        <route edges="24909193#1"/>
    </vehicle>
    <vehicle id="route38" depart="1900.00">
        <route edges="24802988#2 24802988#3 24802988#4 24802988#5 24802988#6 24802988#7 24802988#8 24802988#9 24802988#10 24802988#11 68286129#0 68286129#1 240092039#0 240092039#1 240092039#2 240092039#3 97084819 23857969#0 23857969#1 23857969#2 23857969#3"/>
    </vehicle>
    <vehicle id="route39" depart="1950.00">
        <route edges="43760621#1 43760621#2 43760621#3 43760621#4 43760621#5 43760621#6 43760621#7 24909193#0 24909193#1 24909193#2 24909193#3 24909193#4 68286127#0 68286127#1 68286127#2 68286127#3 68286127#4 68286127#5 68286127#6 23800071#0 23800071#1 23800071#2 23800071#3 23800071#4 31301718#0 31301718#1 31301718#2 72847149#0 72847149#1 23066740#0 23066740#1 177180084 198530824 223006673#0 223006673#1 24771360#0"/>
    </vehicle>
    <vehicle id="route40" depart="2000.00">
        <route edges="23066741#0 23066741#1 37956149#0 37956149#1 37956149#2 223006672#1 223006672#2 283010968#0 283010968#1 141265570 -141265570"/>
    </vehicle>
    <vehicle id="route41" depart="2050.00">
        <route edges="24909193#0 24909193#1 24909193#2 24909193#3 24909193#4 68286127#0 68286127#1 68286127#2 68286127#3 68286127#4 68286127#5 68286127#6 23800071#0 23800071#1 23800071#2 23800071#3 23800071#4 31301718#0 31301718#1 31301718#2 72847149#0 72847149#1 23066740#0 23066740#1 177180084 198530824 223006672#0 223006672#1 223006672#2 283010968#0 283010968#1 141265570 177180085 23794856 141265569 110057082#0 110057082#1"/>
    </vehicle>
    <vehicle id="route42" depart="2100.00">
        <route edges="223006673#0 223006673#1 24917678#0 24917678#1 23763916 122602437 223001538 24917570 78785835 78785864#0 78785864#1"/>
    </vehicle>
    <vehicle id="route45" depart="2250.00">
        <route edges="-228044902 -228044900 -24805443#1 -24805443#0 24581835#1 24581835#2 -155428148#1 -155428148#0 -24771369#2 -24771369#1 -24771369#0 155428150#0 155428150#1 24789912#1 24789912#2 84690459 222680363 84690448#0 84690448#1 35209300 97121841#0 97121841#1 97121841#2"/>
    </vehicle>
    <vehicle id="route47" depart="2350.00">
        <route edges="37956147#0 37956147#1 37956147#2 37956147#3 37956147#4 37956147#5 97111251#0 97111251#1 97111251#2 97111251#3 97111251#4 68286129#0 68286129#1 240092039#0 240092039#1 240092039#2 240092039#3 97084819 84690453#0 84690453#1 84690461#0 84690461#1 84690461#2 30076096#0 30076096#1 30076096#2 30076096#3 30076096#4 68286127#0 68286127#1 68286127#2 68286127#3 68286127#4 68286127#5 68286127#6 23800071#0 23800071#1 23800071#2 23800071#3 23800071#4 31301718#0 31301718#1 31301718#2 72847149#0 72847149#1 23066740#0 23066740#1 177180084 198530824 223006673#0 223006673#1 24917678#0 24917678#1 23763916 122602437"/>
    </vehicle>
    <vehicle id="route49" depart="2450.00">
        <route edges="222680363 84690448#0 84690448#1 35209300 97121841#0 97121841#1 97121841#2 97121841#3 24771362#0 24771362#1 24771362#2 43760621#0 43760621#1 43760621#2 43760621#3 43760621#4 43760621#5 43760621#6 43760621#7 24909193#0 24909193#1 24909193#2 24909193#3 24909193#4"/>
    </vehicle>
    <vehicle id="route50" depart="2500.00">
        <route edges="68286129#1 240092039#0 240092039#1 240092039#2 240092039#3 97084819 84690453#0 84690453#1 84690454#0 84690454#1 86060253#0 86060253#1"/>
    </vehicle>
    <vehicle id="route56" depart="2800.00">
        <route edges="-155428150#0 155428150#0 155428150#1 24789912#1 24789912#2 84690459 240607362 24805440#0 24805440#1 24805440#2 -155428148#1"/>
    </vehicle>
    <vehicle id="route58" depart="2900.00">
        <route edges="24581835#1 24581835#2 -155428148#1 -155428148#0 -24771369#2 -24771369#1 -24771369#0 155428150#0 155428150#1 24789912#1 24789912#2 84690459 240607362 240092040#0 240092040#1 240092040#2 84690453#0 84690453#1 84690461#0 84690461#1 84690461#2 30076096#0 30076096#1 30076096#2 30076096#3 30076096#4 68286127#0 68286127#1 68286127#2 68286127#3 68286127#4 68286127#5 68286127#6 23800071#0 23800071#1 23800071#2 23800071#3 23800071#4 31301718#0 31301718#1 31301718#2 72847149#0 72847149#1 23066740#0 23066740#1 177180084 198530824 223006672#0 223006672#1 223006672#2 283010968#0 283010968#1 141265570 177180085 23794856 141265569 110057082#0 110057082#1 110057082#2 110057082#3 68286128#0 68286128#1"/>
    </vehicle>
    <vehicle id="route61" depart="3050.00">
        <route edges="84690453#0 84690453#1 84690461#0 84690461#1 84690461#2 30076096#0 30076096#1 30076096#2 30076096#3 30076096#4 68286127#0 68286127#1 68286127#2 68286127#3 68286127#4 68286127#5 68286127#6 23800071#0 23800071#1 23800071#2 23800071#3 23800071#4 31301718#0 31301718#1 31301718#2 72847149#0 72847149#1 23066740#0 23066740#1 177180084 198530824 223006673#0 223006673#1 24771360#0 24771360#1 24771360#2 24771360#3 24802988#0 24802988#1 24802988#2 24802988#3 24802988#4 24802988#5 24802988#6 24802988#7 24802988#8 24802988#9 24802988#10 24802988#11"/>
    </vehicle>
    <vehicle id="route64" depart="3200.00">
        <route edges="155428150#0 155428150#1 24789912#1 24789912#2 84690459 240607362 240092040#0 240092040#1 240092040#2 84690453#0 84690453#1 84690461#0 84690461#1 84690461#2 30076096#0 30076096#1 30076096#2 30076096#3 30076096#4 68286127#0 68286127#1 68286127#2 68286127#3 68286127#4 68286127#5 68286127#6 23800071#0 23800071#1 23800071#2 23800071#3 23800071#4 31301718#0 31301718#1 31301718#2 72847149#0 72847149#1 23066740#0 23066740#1 177180084 198530824 223006672#0 223006672#1 223006672#2 283010968#0 283010968#1 141265570 177180085 23794856 141265569 110057082#0 110057082#1 110057082#2 110057082#3 68286128#0 68286128#1 68286131#0 -68286131#0"/>
    </vehicle>
    <vehicle id="route65" depart="3250.00">
        <route edges="74502611#0 74502611#1 74502611#2 24771362#0 24771362#1 24771362#2 24802988#0 24802988#1 24802988#2 24802988#3 24802988#4 24802988#5 24802988#6"/>
    </vehicle>
    <vehicle id="route66" depart="3300.00">
        <route edges="24771369#1 -24771369#1 -24771369#0 155428150#0 155428150#1 24789912#1 24789912#2 84690459 240607362 240092040#0 240092040#1 240092040#2 84690453#0 84690453#1 84690454#0 84690454#1 84690454#2 84690454#3"/>
    </vehicle>
    <vehicle id="route70" depart="3500.00">
        <route edges="228044900 -228044900 -24805443#1 -24805443#0 24581835#1 24581835#2 -155428148#1 -155428148#0 -24771369#2 -24771369#1 -24771369#0 155428150#0 155428150#1 24789912#1 24789912#2 84690459 240607362 240092040#0 240092040#1 240092040#2 84690453#0 84690453#1 84690461#0 84690461#1 84690461#2 30076096#0 30076096#1 30076096#2 30076096#3 30076096#4 68286127#0 68286127#1 68286127#2 68286127#3 68286127#4 68286127#5 68286127#6 23800071#0 23800071#1 23800071#2 23800071#3 23800071#4 31301718#0 31301718#1 31301718#2 72847149#0 72847149#1 23066740#0 23066740#1 177180084 198530824 223006672#0 223006672#1 223006672#2 283010968#0 283010968#1 141265570 177180085 23794856 141265569 110057082#0 110057082#1 110057082#2 110057082#3 68286128#0 68286128#1 68286131#0 -68286131#0"/>
    </vehicle>
</routes>
