<?xml version="1.0" encoding="iso-8859-1"?>

<configuration xmlns:xsi="http://www.w3.org/2001/XMLSchema-instance" xsi:noNamespaceSchemaLocation="http://sumo.sf.net/xsd/sumoConfiguration.xsd">

    <input>
        <net-file value="trento.net.xml"/>
        <route-files value="trento.rou.xml"/>
	<remote-port value="27910"/>
	<end value="120"/>
    </input>

</configuration>
