<?xml version="1.0" encoding="UTF-8"?>

<!-- generated on Wed Dec 12 17:38:01 2018 by Eclipse SUMO netconvert Version 60efd76
<configuration xmlns:xsi="http://www.w3.org/2001/XMLSchema-instance" xsi:noNamespaceSchemaLocation="http://sumo.dlr.de/xsd/netconvertConfiguration.xsd">

    <input>
        <sumo-net-file value="bologna.net.xml"/>
    </input>

    <output>
        <plain-output-prefix value="bologna"/>
    </output>

    <processing>
        <no-turnarounds value="true"/>
        <offset.disable-normalization value="true"/>
        <lefthand value="false"/>
        <junctions.corner-detail value="0"/>
        <rectangular-lane-cut value="false"/>
        <walkingareas value="false"/>
    </processing>

</configuration>
-->

<nodes version="0.27" xmlns:xsi="http://www.w3.org/2001/XMLSchema-instance" xsi:noNamespaceSchemaLocation="http://sumo.dlr.de/xsd/nodes_file.xsd">
    <location netOffset="-663088.49,-5102615.60" convBoundary="0.00,0.00,1440.65,4005.89" origBoundary="11.109789,46.057512,11.127587,46.093694" projParameter="+proj=utm +zone=32 +ellps=WGS84 +datum=WGS84 +units=m +no_defs"/>

    <node id="1000099468" x="1051.73" y="1514.28" type="priority"/>
    <node id="1000099475" x="935.14" y="1787.63" type="priority"/>
    <node id="1000099490" x="1191.86" y="1648.86" type="priority"/>
    <node id="1000099503" x="1017.76" y="1740.28" type="priority"/>
    <node id="1000099520" x="997.33" y="1451.08" type="dead_end"/>
    <node id="1000099544" x="991.17" y="1472.79" type="priority"/>
    <node id="1000099551" x="991.85" y="1470.51" type="dead_end"/>
    <node id="1000099553" x="970.29" y="1628.56" type="right_before_left"/>
    <node id="1000099576" x="942.64" y="1789.91" type="priority"/>
    <node id="1000099591" x="1026.98" y="1746.31" type="priority"/>
    <node id="1000099607" x="1015.39" y="1734.74" type="priority"/>
    <node id="1000099650" x="824.12" y="1452.35" type="dead_end"/>
    <node id="1000099651" x="1021.38" y="1748.68" type="priority"/>
    <node id="1000099724" x="1029.28" y="1735.25" type="priority"/>
    <node id="1000099741" x="1198.29" y="1576.35" type="priority"/>
    <node id="1000099788" x="998.29" y="1447.51" type="right_before_left"/>
    <node id="1012321567" x="845.70" y="1608.90" type="dead_end"/>
    <node id="1012321573" x="841.58" y="1600.17" type="dead_end"/>
    <node id="1012321580" x="848.74" y="1615.35" type="dead_end"/>
    <node id="1012326820" x="797.25" y="1450.93" type="priority"/>
    <node id="1028832186" x="1336.07" y="1612.22" type="dead_end"/>
    <node id="1028832536" x="1351.28" y="1576.52" type="dead_end"/>
    <node id="1037290808" x="1015.78" y="1420.88" type="right_before_left"/>
    <node id="1037290822" x="998.88" y="1365.06" type="priority"/>
    <node id="1037290863" x="997.93" y="1369.72" type="priority"/>
    <node id="1037290889" x="1023.39" y="1400.22" type="priority"/>
    <node id="1037290915" x="1012.60" y="1441.67" type="priority"/>
    <node id="1037290944" x="1002.56" y="1349.08" type="priority"/>
    <node id="1040964328" x="938.79" y="1581.20" type="right_before_left"/>
    <node id="1040964333" x="916.37" y="1611.22" type="dead_end"/>
    <node id="1045044692" x="967.06" y="1431.12" type="right_before_left"/>
    <node id="1045044715" x="907.79" y="1639.93" type="dead_end"/>
    <node id="1045044750" x="859.32" y="1415.39" type="dead_end"/>
    <node id="1045044796" x="853.26" y="1624.95" type="dead_end"/>
    <node id="1045044803" x="940.98" y="1626.51" type="dead_end"/>
    <node id="1045044863" x="951.71" y="1612.50" type="priority"/>
    <node id="1062771951" x="1302.79" y="1628.94" type="priority"/>
    <node id="1062771990" x="1267.61" y="1655.37" type="priority"/>
    <node id="1109589944" x="978.60" y="1474.97" type="right_before_left"/>
    <node id="1109589987" x="962.04" y="1498.13" type="priority"/>
    <node id="1123630986" x="825.64" y="1601.79" type="priority"/>
    <node id="1125127500" x="868.96" y="1233.60" type="priority"/>
    <node id="1149210260" x="895.89" y="1817.30" type="dead_end"/>
    <node id="1150667539" x="821.95" y="1723.93" type="dead_end"/>
    <node id="1150667540" x="847.52" y="1769.07" type="dead_end"/>
    <node id="1150667546" x="873.08" y="1670.66" type="dead_end"/>
    <node id="1150667552" x="870.17" y="1691.75" type="dead_end"/>
    <node id="1150667555" x="932.23" y="1795.49" type="dead_end"/>
    <node id="1150667558" x="862.14" y="1801.49" type="dead_end"/>
    <node id="1150667560" x="858.98" y="1794.37" type="dead_end"/>
    <node id="1150667568" x="900.69" y="1843.67" type="dead_end"/>
    <node id="1150667571" x="835.60" y="1733.48" type="priority"/>
    <node id="1150667586" x="886.69" y="1850.08" type="dead_end"/>
    <node id="1150667603" x="892.67" y="1822.42" type="dead_end"/>
    <node id="1150667604" x="882.63" y="1800.62" type="dead_end"/>
    <node id="1150667608" x="866.19" y="1810.26" type="dead_end"/>
    <node id="1150667618" x="757.11" y="1566.24" type="dead_end"/>
    <node id="1150667622" x="833.33" y="1739.11" type="dead_end"/>
    <node id="1156723779" x="868.57" y="1656.39" type="priority"/>
    <node id="1156723834" x="868.38" y="1661.78" type="dead_end"/>
    <node id="1156723839" x="868.61" y="1652.62" type="dead_end"/>
    <node id="1157698150" x="1132.09" y="1423.67" type="dead_end"/>
    <node id="1200892937" x="1218.89" y="1311.31" type="dead_end"/>
    <node id="1200892960" x="1232.74" y="1312.16" type="dead_end"/>
    <node id="1201745377" x="1440.65" y="1598.26" type="dead_end"/>
    <node id="1201745399" x="1196.61" y="1314.28" type="dead_end"/>
    <node id="1201745409" x="1200.74" y="1333.82" type="dead_end"/>
    <node id="1211136497" x="775.93" y="1342.41" type="priority"/>
    <node id="1211136595" x="779.14" y="1323.07" type="priority"/>
    <node id="1211136870" x="776.83" y="1336.97" type="priority"/>
    <node id="1220020505" x="1188.89" y="1481.68" type="dead_end"/>
    <node id="1220020545" x="1196.06" y="1502.41" type="priority"/>
    <node id="1220020588" x="996.87" y="1677.26" type="priority"/>
    <node id="1220020592" x="1164.39" y="1498.25" type="priority"/>
    <node id="1220020607" x="1044.29" y="1654.06" type="priority"/>
    <node id="1220020630" x="1197.97" y="1483.14" type="dead_end"/>
    <node id="1220020656" x="1015.39" y="1669.22" type="priority"/>
    <node id="1220020673" x="1187.38" y="1502.04" type="right_before_left"/>
    <node id="1220020679" x="1167.38" y="1498.76" type="priority"/>
    <node id="1229522462" x="916.90" y="1391.23" type="dead_end"/>
    <node id="1229522502" x="907.07" y="1388.82" type="dead_end"/>
    <node id="1229522509" x="910.79" y="1405.80" type="dead_end"/>
    <node id="1229522552" x="903.86" y="1404.53" type="dead_end"/>
    <node id="1229522554" x="916.87" y="1406.81" type="dead_end"/>
    <node id="1252265070" x="1414.31" y="1296.95" type="dead_end"/>
    <node id="1252285079" x="1305.72" y="1547.63" type="dead_end"/>
    <node id="1252285082" x="1331.26" y="1448.55" type="dead_end"/>
    <node id="1252285085" x="1327.44" y="1454.09" type="dead_end"/>
    <node id="1252285087" x="1431.29" y="1410.37" type="dead_end"/>
    <node id="1252285092" x="1327.84" y="1558.00" type="dead_end"/>
    <node id="1252285093" x="1312.16" y="1550.65" type="priority"/>
    <node id="1252285105" x="1325.66" y="1582.46" type="dead_end"/>
    <node id="1252285107" x="1323.65" y="1585.90" type="dead_end"/>
    <node id="1252285133" x="1335.06" y="1590.89" type="dead_end"/>
    <node id="1252285137" x="1291.71" y="1609.49" type="dead_end"/>
    <node id="1252285138" x="1420.05" y="1405.13" type="dead_end"/>
    <node id="1252285140" x="1321.21" y="1554.90" type="priority"/>
    <node id="1258258237" x="734.19" y="1347.31" type="priority"/>
    <node id="1264255381" x="997.52" y="1693.66" type="priority"/>
    <node id="1271504738" x="802.27" y="1390.41" type="dead_end"/>
    <node id="1271504743" x="716.91" y="1382.76" type="dead_end"/>
    <node id="1271504747" x="1128.19" y="1506.29" type="dead_end"/>
    <node id="1271504748" x="979.63" y="1418.70" type="priority"/>
    <node id="1271504750" x="1258.69" y="1653.42" type="dead_end"/>
    <node id="1271504755" x="1033.17" y="1456.24" type="priority"/>
    <node id="1271504756" x="1286.23" y="1427.41" type="dead_end"/>
    <node id="1271504757" x="967.94" y="1498.44" type="priority"/>
    <node id="1271504758" x="968.08" y="1500.39" type="dead_end"/>
    <node id="1271504762" x="1303.34" y="1610.45" type="dead_end"/>
    <node id="1271504763" x="1145.53" y="1536.15" type="dead_end"/>
    <node id="1271504764" x="1024.85" y="1452.81" type="dead_end"/>
    <node id="1271504766" x="969.89" y="1440.11" type="right_before_left"/>
    <node id="1271504767" x="1329.31" y="1454.79" type="dead_end"/>
    <node id="1271504768" x="1155.72" y="1523.90" type="dead_end"/>
    <node id="1271504770" x="821.79" y="1408.46" type="dead_end"/>
    <node id="1271504773" x="808.93" y="1554.33" type="priority"/>
    <node id="1271504774" x="989.82" y="1428.99" type="dead_end"/>
    <node id="1271504775" x="836.56" y="1393.51" type="dead_end"/>
    <node id="1271504778" x="1015.56" y="1438.42" type="dead_end"/>
    <node id="1271504781" x="1103.72" y="1500.68" type="priority"/>
    <node id="1271504783" x="849.03" y="1421.05" type="dead_end"/>
    <node id="1271504788" x="1065.66" y="1470.53" type="priority"/>
    <node id="1271504795" x="1035.22" y="1457.53" type="dead_end"/>
    <node id="1271504797" x="1198.23" y="1565.43" type="dead_end"/>
    <node id="1271504801" x="1159.33" y="1526.22" type="dead_end"/>
    <node id="1271504803" x="1101.23" y="1498.58" type="dead_end"/>
    <node id="1271504804" x="844.03" y="1669.44" type="dead_end"/>
    <node id="1271504812" x="811.81" y="1501.27" type="dead_end"/>
    <node id="1271504813" x="1106.50" y="1503.28" type="dead_end"/>
    <node id="1271504814" x="1075.80" y="1572.52" type="dead_end"/>
    <node id="1271504815" x="862.10" y="1401.32" type="dead_end"/>
    <node id="1271504816" x="1069.63" y="1467.88" type="dead_end"/>
    <node id="1271504817" x="1234.90" y="1670.96" type="dead_end"/>
    <node id="1271504819" x="1284.60" y="1431.37" type="priority"/>
    <node id="1271504822" x="813.13" y="1585.89" type="dead_end"/>
    <node id="1271504823" x="1304.32" y="1637.43" type="dead_end"/>
    <node id="1271504824" x="1125.95" y="1504.80" type="dead_end"/>
    <node id="1271504827" x="975.88" y="1417.83" type="right_before_left"/>
    <node id="1271504828" x="973.47" y="1473.63" type="priority"/>
    <node id="1271504829" x="840.62" y="1654.90" type="priority"/>
    <node id="1271504830" x="808.39" y="1559.67" type="priority"/>
    <node id="1271504831" x="964.11" y="1524.11" type="dead_end"/>
    <node id="1271504832" x="1088.80" y="1480.10" type="dead_end"/>
    <node id="1271504834" x="825.31" y="1420.81" type="dead_end"/>
    <node id="1271504836" x="1152.55" y="1521.87" type="dead_end"/>
    <node id="1271504838" x="1067.80" y="1466.71" type="priority"/>
    <node id="1271504841" x="826.49" y="1444.69" type="dead_end"/>
    <node id="1271504842" x="824.22" y="1394.87" type="dead_end"/>
    <node id="1271504843" x="1273.51" y="1226.85" type="priority"/>
    <node id="1271504844" x="1081.08" y="1570.27" type="dead_end"/>
    <node id="1271504845" x="831.12" y="1490.87" type="dead_end"/>
    <node id="1271504849" x="974.89" y="1468.88" type="priority"/>
    <node id="1271504850" x="1273.86" y="1426.57" type="priority"/>
    <node id="1271504851" x="936.39" y="1769.15" type="dead_end"/>
    <node id="1271504852" x="1194.83" y="1558.83" type="dead_end"/>
    <node id="1271504855" x="1034.81" y="1446.43" type="dead_end"/>
    <node id="1271504858" x="841.07" y="1648.92" type="dead_end"/>
    <node id="1271504861" x="973.40" y="1617.55" type="dead_end"/>
    <node id="1271504863" x="1130.08" y="1507.54" type="dead_end"/>
    <node id="1271504864" x="808.51" y="1562.17" type="dead_end"/>
    <node id="1271504866" x="1065.86" y="1465.47" type="dead_end"/>
    <node id="1271504867" x="967.90" y="1495.51" type="dead_end"/>
    <node id="1271504868" x="942.23" y="1782.07" type="right_before_left"/>
    <node id="1271504870" x="756.24" y="1381.03" type="dead_end"/>
    <node id="1271504871" x="1079.07" y="1443.33" type="priority"/>
    <node id="1271504872" x="972.87" y="1475.62" type="dead_end"/>
    <node id="1271504873" x="1078.91" y="1571.14" type="priority"/>
    <node id="1271504874" x="1324.65" y="1452.83" type="dead_end"/>
    <node id="1271504875" x="969.09" y="1420.69" type="priority"/>
    <node id="1271504876" x="820.77" y="1431.60" type="dead_end"/>
    <node id="1271504878" x="982.34" y="1444.42" type="dead_end"/>
    <node id="1271504881" x="1026.96" y="1453.50" type="priority"/>
    <node id="1271504883" x="873.59" y="1699.42" type="priority"/>
    <node id="1271504884" x="815.49" y="1458.71" type="dead_end"/>
    <node id="1271504887" x="809.19" y="1551.69" type="dead_end"/>
    <node id="1271504888" x="959.13" y="1571.41" type="dead_end"/>
    <node id="1271504889" x="1250.24" y="1625.68" type="priority"/>
    <node id="1271504891" x="1247.55" y="1646.77" type="dead_end"/>
    <node id="1271504893" x="963.63" y="1526.14" type="priority"/>
    <node id="1271504894" x="975.53" y="1466.75" type="dead_end"/>
    <node id="1271504895" x="1306.59" y="1636.62" type="priority"/>
    <node id="1271504898" x="986.97" y="1440.27" type="dead_end"/>
    <node id="1271504899" x="983.38" y="1419.57" type="dead_end"/>
    <node id="1271504901" x="1013.23" y="1437.55" type="priority"/>
    <node id="1271504902" x="826.75" y="1616.61" type="dead_end"/>
    <node id="1271504904" x="1234.18" y="1743.06" type="priority"/>
    <node id="1271504905" x="1313.35" y="1502.23" type="dead_end"/>
    <node id="1271504907" x="1200.65" y="1570.13" type="dead_end"/>
    <node id="1271504908" x="963.19" y="1527.94" type="dead_end"/>
    <node id="1271504910" x="1253.77" y="1653.94" type="dead_end"/>
    <node id="1271504911" x="813.20" y="1510.12" type="dead_end"/>
    <node id="1271504913" x="1313.86" y="1632.85" type="priority"/>
    <node id="1271504914" x="1011.31" y="1436.77" type="dead_end"/>
    <node id="1271504918" x="809.09" y="1573.04" type="dead_end"/>
    <node id="1298727142" x="977.63" y="1619.82" type="priority"/>
    <node id="1299369677" x="863.33" y="1705.51" type="dead_end"/>
    <node id="1299369678" x="834.62" y="1634.38" type="dead_end"/>
    <node id="1299369679" x="866.44" y="1711.27" type="dead_end"/>
    <node id="1299369684" x="818.68" y="1598.42" type="dead_end"/>
    <node id="1299369686" x="900.83" y="1786.33" type="dead_end"/>
    <node id="1299369689" x="902.73" y="1790.80" type="priority"/>
    <node id="1299369691" x="857.01" y="1697.03" type="dead_end"/>
    <node id="1299369694" x="854.84" y="1697.99" type="dead_end"/>
    <node id="1299369697" x="903.84" y="1793.40" type="dead_end"/>
    <node id="1299369699" x="907.38" y="1801.70" type="dead_end"/>
    <node id="1299369701" x="864.99" y="1708.57" type="priority"/>
    <node id="1312440651" x="696.13" y="1401.82" type="dead_end"/>
    <node id="1312440659" x="814.86" y="1455.14" type="priority"/>
    <node id="1312440715" x="697.05" y="1391.96" type="dead_end"/>
    <node id="1312812204" x="843.87" y="1394.50" type="dead_end"/>
    <node id="1353566368" x="1238.48" y="1355.08" type="dead_end"/>
    <node id="1353566371" x="1226.15" y="1354.94" type="dead_end"/>
    <node id="1360932319" x="1269.53" y="1224.45" type="dead_end"/>
    <node id="1366801174" x="1335.52" y="1275.33" type="dead_end"/>
    <node id="1366801185" x="1323.77" y="1292.96" type="dead_end"/>
    <node id="1366801190" x="1409.21" y="1298.18" type="dead_end"/>
    <node id="1366801191" x="1316.08" y="1296.77" type="dead_end"/>
    <node id="1366801194" x="1315.27" y="1298.90" type="dead_end"/>
    <node id="1366801200" x="1335.34" y="1318.57" type="dead_end"/>
    <node id="1366801204" x="1426.49" y="1335.73" type="dead_end"/>
    <node id="1366801217" x="1271.50" y="1368.34" type="priority"/>
    <node id="1366801221" x="1289.16" y="1372.42" type="priority"/>
    <node id="1366801262" x="1294.44" y="1478.77" type="priority"/>
    <node id="1366801267" x="1318.01" y="1498.41" type="priority"/>
    <node id="1492679675" x="1159.85" y="1546.13" type="dead_end"/>
    <node id="1492679678" x="1139.63" y="1555.17" type="priority"/>
    <node id="1492679681" x="1184.22" y="1577.72" type="dead_end"/>
    <node id="1492679687" x="1187.48" y="1582.52" type="priority"/>
    <node id="1492679688" x="1094.91" y="1579.18" type="dead_end"/>
    <node id="1492679696" x="1086.49" y="1583.16" type="dead_end"/>
    <node id="1492679714" x="1196.35" y="1596.25" type="priority"/>
    <node id="1492679718" x="1198.79" y="1601.59" type="dead_end"/>
    <node id="1492679723" x="1023.19" y="1606.43" type="priority"/>
    <node id="1492679726" x="976.24" y="1616.30" type="dead_end"/>
    <node id="1492679729" x="1224.46" y="1631.28" type="dead_end"/>
    <node id="1492679731" x="979.58" y="1624.79" type="dead_end"/>
    <node id="1492679733" x="1214.15" y="1635.61" type="dead_end"/>
    <node id="1492679738" x="1171.79" y="1665.23" type="dead_end"/>
    <node id="1492679739" x="1156.06" y="1673.54" type="dead_end"/>
    <node id="1492679740" x="1147.34" y="1674.51" type="dead_end"/>
    <node id="1492679741" x="999.53" y="1672.99" type="dead_end"/>
    <node id="1492679747" x="1139.29" y="1678.16" type="dead_end"/>
    <node id="1492679749" x="1000.63" y="1675.63" type="priority"/>
    <node id="1492679753" x="1001.75" y="1678.35" type="dead_end"/>
    <node id="1492679755" x="1136.60" y="1682.01" type="dead_end"/>
    <node id="1492679756" x="1026.32" y="1728.51" type="dead_end"/>
    <node id="1492729095" x="1143.34" y="1554.38" type="dead_end"/>
    <node id="1492729097" x="1136.98" y="1555.75" type="dead_end"/>
    <node id="1492729111" x="1194.74" y="1647.30" type="dead_end"/>
    <node id="1492729114" x="1188.93" y="1650.44" type="dead_end"/>
    <node id="1492802030" x="1117.60" y="1560.14" type="priority"/>
    <node id="1492802032" x="1122.02" y="1563.99" type="dead_end"/>
    <node id="1492802033" x="1120.05" y="1564.67" type="priority"/>
    <node id="1492802034" x="1117.83" y="1565.42" type="dead_end"/>
    <node id="1492802065" x="1160.56" y="1598.29" type="dead_end"/>
    <node id="1492802066" x="1145.61" y="1606.54" type="dead_end"/>
    <node id="1492802067" x="1168.47" y="1612.55" type="dead_end"/>
    <node id="1492802068" x="1153.72" y="1621.16" type="dead_end"/>
    <node id="1492802069" x="1209.75" y="1641.33" type="dead_end"/>
    <node id="1492802079" x="1176.46" y="1662.20" type="dead_end"/>
    <node id="1492802080" x="1174.72" y="1663.32" type="priority"/>
    <node id="1492802092" x="1216.97" y="1667.71" type="dead_end"/>
    <node id="1492802093" x="1177.73" y="1668.72" type="priority"/>
    <node id="1492802125" x="1162.96" y="1689.16" type="dead_end"/>
    <node id="1492802133" x="1157.49" y="1691.46" type="dead_end"/>
    <node id="1492802135" x="1143.04" y="1697.36" type="dead_end"/>
    <node id="1492802180" x="1243.08" y="1747.99" type="priority"/>
    <node id="1492802187" x="1033.01" y="1743.77" type="right_before_left"/>
    <node id="1492802188" x="1030.34" y="1744.89" type="priority"/>
    <node id="1520433227" x="1150.83" y="1446.55" type="priority"/>
    <node id="1523162665" x="1243.53" y="1276.83" type="priority"/>
    <node id="1523162688" x="1224.36" y="1282.32" type="priority"/>
    <node id="1525505187" x="1058.91" y="1437.96" type="priority"/>
    <node id="1546385394" x="749.39" y="1322.94" type="dead_end"/>
    <node id="1546385396" x="771.53" y="1343.32" type="priority"/>
    <node id="1581750763" x="975.36" y="2133.15" type="dead_end"/>
    <node id="1588583830" x="829.12" y="1379.00" type="priority"/>
    <node id="1588583836" x="820.26" y="1394.06" type="priority"/>
    <node id="1588583838" x="819.88" y="1400.29" type="priority"/>
    <node id="1588614171" x="1075.40" y="1877.75" type="dead_end"/>
    <node id="1588614178" x="991.76" y="1905.02" type="dead_end"/>
    <node id="1618076276" x="1152.14" y="1636.78" type="priority"/>
    <node id="1618076279" x="1133.51" y="1648.35" type="priority"/>
    <node id="1618076280" x="1129.03" y="1651.13" type="priority"/>
    <node id="1627542968" x="1150.76" y="1448.88" type="priority"/>
    <node id="1627542972" x="1150.64" y="1452.89" type="right_before_left"/>
    <node id="1633007385" x="1102.23" y="1415.75" type="priority"/>
    <node id="1633007386" x="1103.93" y="1415.87" type="priority"/>
    <node id="1633007387" x="1110.14" y="1416.49" type="right_before_left"/>
    <node id="1633007392" x="1131.55" y="1428.49" type="dead_end"/>
    <node id="1633007394" x="1130.94" y="1433.66" type="dead_end"/>
    <node id="1633007411" x="1087.28" y="1484.23" type="priority"/>
    <node id="1638162257" x="1123.85" y="1658.99" type="priority"/>
    <node id="1638162321" x="1077.33" y="1432.07" type="priority"/>
    <node id="1638162329" x="1116.83" y="1628.39" type="priority"/>
    <node id="1638162333" x="1113.49" y="1630.08" type="priority"/>
    <node id="1638162337" x="1106.07" y="1633.78" type="priority"/>
    <node id="1638162345" x="1075.95" y="1647.07" type="priority"/>
    <node id="1638162350" x="1131.51" y="1656.02" type="priority"/>
    <node id="1638162362" x="1090.44" y="1681.83" type="right_before_left"/>
    <node id="1638162367" x="1091.31" y="1683.93" type="priority"/>
    <node id="1638162370" x="1064.81" y="1692.33" type="priority"/>
    <node id="1638162372" x="1096.78" y="1697.20" type="priority"/>
    <node id="1638162374" x="1097.35" y="1698.56" type="priority"/>
    <node id="1638162381" x="1100.13" y="1705.29" type="priority"/>
    <node id="1639755548" x="1267.05" y="1742.90" type="priority"/>
    <node id="1639755552" x="1242.42" y="1742.07" type="dead_end"/>
    <node id="1639755555" x="1242.83" y="1745.63" type="dead_end"/>
    <node id="1639755557" x="1262.47" y="1748.75" type="priority"/>
    <node id="1639755560" x="1273.93" y="1749.34" type="priority"/>
    <node id="1639755562" x="1268.45" y="1756.32" type="priority"/>
    <node id="1639755599" x="1229.83" y="1825.86" type="priority"/>
    <node id="1639755623" x="1228.52" y="1877.90" type="dead_end"/>
    <node id="1641547047" x="857.49" y="1348.80" type="dead_end"/>
    <node id="1641547058" x="844.67" y="1423.21" type="dead_end"/>
    <node id="1641560176" x="940.45" y="1220.15" type="right_before_left"/>
    <node id="1641560177" x="965.59" y="1223.54" type="priority"/>
    <node id="1651682633" x="1028.81" y="1240.10" type="dead_end"/>
    <node id="1662768708" x="986.61" y="1367.34" type="priority"/>
    <node id="1662768775" x="958.87" y="1619.31" type="priority"/>
    <node id="1662768800" x="979.39" y="1649.95" type="priority"/>
    <node id="1662768802" x="967.28" y="1655.03" type="dead_end"/>
    <node id="1662768832" x="1050.21" y="1668.51" type="priority"/>
    <node id="1662768848" x="1047.47" y="1674.87" type="priority"/>
    <node id="1662768874" x="1051.95" y="1682.97" type="priority"/>
    <node id="1662768902" x="1022.74" y="1729.03" type="dead_end"/>
    <node id="1662768903" x="1020.02" y="1730.27" type="priority"/>
    <node id="1662768907" x="1014.60" y="1732.72" type="right_before_left"/>
    <node id="1667250502" x="963.46" y="1466.76" type="priority"/>
    <node id="1669284979" x="1235.50" y="1531.19" type="dead_end"/>
    <node id="1669401970" x="1233.01" y="1507.28" type="dead_end"/>
    <node id="1669402045" x="1259.47" y="1495.41" type="dead_end"/>
    <node id="1678228017" x="1318.48" y="1629.92" type="dead_end"/>
    <node id="1678228032" x="1358.27" y="1635.21" type="priority"/>
    <node id="1678228035" x="1309.70" y="1635.50" type="dead_end"/>
    <node id="1678228078" x="1344.45" y="1664.00" type="priority"/>
    <node id="1678228083" x="1314.74" y="1752.20" type="priority"/>
    <node id="1678228091" x="1344.65" y="1757.01" type="right_before_left"/>
    <node id="1678228101" x="1362.13" y="1763.43" type="priority"/>
    <node id="1678228110" x="1334.18" y="1789.46" type="priority"/>
    <node id="1680791734" x="843.54" y="1344.33" type="dead_end"/>
    <node id="1687734013" x="750.50" y="1269.43" type="dead_end"/>
    <node id="1687734029" x="631.14" y="1291.71" type="dead_end"/>
    <node id="1687734032" x="736.98" y="1319.41" type="dead_end"/>
    <node id="1687734072" x="701.12" y="1351.11" type="dead_end"/>
    <node id="1687734075" x="721.28" y="1355.17" type="dead_end"/>
    <node id="1687734079" x="722.68" y="1355.45" type="dead_end"/>
    <node id="1687734112" x="692.40" y="1366.04" type="dead_end"/>
    <node id="1687734126" x="695.44" y="1366.21" type="priority"/>
    <node id="1687734130" x="698.24" y="1366.36" type="dead_end"/>
    <node id="1687734136" x="715.15" y="1367.28" type="dead_end"/>
    <node id="1713343743" x="1115.40" y="1315.36" type="dead_end"/>
    <node id="1740376156" x="1155.48" y="1512.43" type="priority"/>
    <node id="1740376157" x="1151.98" y="1519.19" type="priority"/>
    <node id="1740376158" x="1149.05" y="1519.64" type="dead_end"/>
    <node id="1740376159" x="1151.07" y="1520.92" type="priority"/>
    <node id="1740376160" x="1147.81" y="1525.36" type="priority"/>
    <node id="1755063751" x="1253.61" y="1624.71" type="dead_end"/>
    <node id="1755063753" x="1241.26" y="1628.47" type="dead_end"/>
    <node id="1762021750" x="695.67" y="1391.99" type="dead_end"/>
    <node id="1762021752" x="851.34" y="1684.99" type="priority"/>
    <node id="1768099917" x="1310.55" y="1514.45" type="priority"/>
    <node id="1768099965" x="1253.66" y="1508.13" type="dead_end"/>
    <node id="1768099966" x="1255.29" y="1508.20" type="dead_end"/>
    <node id="1768099967" x="1282.15" y="1512.03" type="priority"/>
    <node id="1768099968" x="1311.91" y="1513.03" type="dead_end"/>
    <node id="1768099969" x="1254.86" y="1512.50" type="dead_end"/>
    <node id="1768099970" x="1311.71" y="1514.55" type="priority"/>
    <node id="1768099971" x="1317.42" y="1515.05" type="right_before_left"/>
    <node id="1768099972" x="1311.49" y="1516.18" type="dead_end"/>
    <node id="1832336859" x="1128.99" y="1657.02" type="priority"/>
    <node id="1846673234" x="1211.56" y="1669.86" type="dead_end"/>
    <node id="1846673236" x="1226.57" y="1743.97" type="dead_end"/>
    <node id="1896171140" x="621.76" y="1787.19" type="priority"/>
    <node id="1997897832" x="861.87" y="1699.27" type="traffic_light" tl="1997897832"/>
    <node id="2018118677" x="1243.04" y="1633.64" type="traffic_light" tl="2018118677"/>
    <node id="2018118678" x="1237.84" y="1635.17" type="traffic_light" tl="2018118678"/>
    <node id="2018118679" x="1258.51" y="1639.06" type="traffic_light" tl="2018118679"/>
    <node id="2018118680" x="1246.18" y="1642.76" type="traffic_light" tl="2018118680"/>
    <node id="2199999053" x="763.27" y="1221.81" type="priority"/>
    <node id="2199999054" x="748.61" y="1222.10" type="right_before_left"/>
    <node id="2232005193" x="652.87" y="1401.09" type="dead_end"/>
    <node id="2232005196" x="659.88" y="1441.73" type="dead_end"/>
    <node id="2232005197" x="676.20" y="1473.19" type="priority"/>
    <node id="2232005200" x="685.89" y="1508.67" type="priority"/>
    <node id="2232005201" x="677.56" y="1515.21" type="priority"/>
    <node id="2232005230" x="800.01" y="1794.40" type="priority"/>
    <node id="2232005234" x="818.71" y="1825.38" type="priority"/>
    <node id="2232005247" x="859.74" y="1904.09" type="priority"/>
    <node id="2232005253" x="883.69" y="1942.94" type="priority"/>
    <node id="2275120553" x="663.17" y="1646.38" type="priority"/>
    <node id="2275120556" x="685.84" y="1688.94" type="priority"/>
    <node id="2275120558" x="704.83" y="1753.82" type="priority"/>
    <node id="2316864458" x="1175.16" y="1882.64" type="dead_end"/>
    <node id="2316869486" x="1086.33" y="1865.47" type="dead_end"/>
    <node id="2316880947" x="1234.02" y="1878.35" type="dead_end"/>
    <node id="2316880949" x="1235.36" y="1826.70" type="priority"/>
    <node id="2316880953" x="1243.49" y="1751.77" type="dead_end"/>
    <node id="2316880954" x="1262.76" y="1753.07" type="dead_end"/>
    <node id="2316880961" x="1250.85" y="1880.47" type="dead_end"/>
    <node id="2316880962" x="1262.31" y="1746.32" type="dead_end"/>
    <node id="2316880964" x="1264.46" y="1743.33" type="dead_end"/>
    <node id="2316882450" x="1227.94" y="1749.29" type="priority"/>
    <node id="2316882460" x="1272.78" y="1782.04" type="priority"/>
    <node id="2316882463" x="1274.08" y="1754.53" type="dead_end"/>
    <node id="2316882465" x="1303.82" y="1757.00" type="dead_end"/>
    <node id="2316887643" x="1265.05" y="1756.24" type="dead_end"/>
    <node id="2316887644" x="1271.00" y="1756.39" type="dead_end"/>
    <node id="2316887645" x="1269.45" y="1742.51" type="dead_end"/>
    <node id="2316887646" x="1273.87" y="1747.11" type="dead_end"/>
    <node id="2316887648" x="1308.48" y="1749.85" type="dead_end"/>
    <node id="2317022850" x="1174.62" y="1886.25" type="dead_end"/>
    <node id="2317493894" x="1256.72" y="1903.50" type="dead_end"/>
    <node id="2318907707" x="1178.03" y="1471.95" type="priority"/>
    <node id="2319538890" x="832.80" y="1454.51" type="priority"/>
    <node id="2319538892" x="831.10" y="1421.56" type="traffic_light" tl="2319538892"/>
    <node id="2344153493" x="980.35" y="1750.00" type="dead_end"/>
    <node id="2344153494" x="971.85" y="1753.71" type="priority"/>
    <node id="2344153495" x="970.14" y="1754.45" type="dead_end"/>
    <node id="2344153496" x="974.42" y="1759.62" type="priority"/>
    <node id="2366965226" x="1286.27" y="1784.02" type="priority"/>
    <node id="2366965227" x="1274.86" y="1782.38" type="priority"/>