<?xml version="1.0" encoding="UTF-8"?>

<!-- generated on Thu Dec 13 00:43:16 2018 by Eclipse SUMO netconvert Version 60efd76
<configuration xmlns:xsi="http://www.w3.org/2001/XMLSchema-instance" xsi:noNamespaceSchemaLocation="http://sumo.dlr.de/xsd/netconvertConfiguration.xsd">

    <input>
        <node-files value="2018-12-13_00-42-48/gen0_6_trento.nod.xml"/>
        <edge-files value="trento.edg.xml"/>
        <connection-files value="trento.con.xml"/>
        <tllogic-files value="2018-12-13_00-42-48/gen0_6_trento.tll.xml"/>
        <type-files value="trento.typ.xml"/>
    </input>

    <output>
        <output-file value="trento.net.xml"/>
    </output>

</configuration>
-->

<net version="0.27" xmlns:xsi="http://www.w3.org/2001/XMLSchema-instance" xsi:noNamespaceSchemaLocation="http://sumo.dlr.de/xsd/net_file.xsd">

    <location netOffset="-663088.49,-5102615.60" convBoundary="0.00,0.00,1440.65,4005.89" origBoundary="11.109789,46.057512,11.127587,46.093694" projParameter="+proj=utm +zone=32 +ellps=WGS84 +datum=WGS84 +units=m +no_defs"/>

    <type id="highway.bridleway" priority="1" numLanes="1" speed="2.78" allow="pedestrian" oneway="1" width="2.00"/>
    <type id="highway.bus_guideway" priority="1" numLanes="1" speed="27.78" allow="bus" oneway="1"/>
    <type id="highway.cycleway" priority="1" numLanes="1" speed="8.33" allow="bicycle" oneway="0" width="1.00"/>
    <type id="highway.footway" priority="1" numLanes="1" speed="2.78" allow="pedestrian" oneway="1" width="2.00"/>
    <type id="highway.ford" priority="1" numLanes="1" speed="2.78" allow="army" oneway="0"/>
    <type id="highway.living_street" priority="3" numLanes="1" speed="2.78" disallow="tram rail_urban rail rail_electric ship automated" oneway="0"/>
    <type id="highway.motorway" priority="13" numLanes="2" speed="44.44" allow="private emergency authority army vip passenger hov taxi bus coach delivery truck trailer motorcycle evehicle custom1 custom2" oneway="1"/>
    <type id="highway.motorway_link" priority="12" numLanes="1" speed="22.22" allow="private emergency authority army vip passenger hov taxi bus coach delivery truck trailer motorcycle evehicle custom1 custom2" oneway="1"/>
    <type id="highway.path" priority="1" numLanes="1" speed="2.78" allow="bicycle pedestrian" oneway="1" width="2.00"/>
    <type id="highway.pedestrian" priority="1" numLanes="1" speed="2.78" allow="pedestrian" oneway="1" width="2.00"/>
    <type id="highway.primary" priority="9" numLanes="2" speed="27.78" disallow="tram rail_urban rail rail_electric ship automated" oneway="0"/>
    <type id="highway.primary_link" priority="8" numLanes="1" speed="22.22" disallow="tram rail_urban rail rail_electric ship automated" oneway="0"/>
    <type id="highway.raceway" priority="14" numLanes="2" speed="83.33" allow="vip" oneway="0"/>
    <type id="highway.residential" priority="4" numLanes="1" speed="13.89" disallow="tram rail_urban rail rail_electric ship automated" oneway="0"/>
    <type id="highway.secondary" priority="7" numLanes="2" speed="27.78" disallow="tram rail_urban rail rail_electric ship automated" oneway="0"/>
    <type id="highway.secondary_link" priority="6" numLanes="1" speed="22.22" disallow="tram rail_urban rail rail_electric ship automated" oneway="0"/>
    <type id="highway.service" priority="2" numLanes="1" speed="5.56" allow="delivery bicycle pedestrian" oneway="0"/>
    <type id="highway.services" priority="1" numLanes="1" speed="8.33" disallow="tram rail_urban rail rail_electric ship automated" oneway="0"/>
    <type id="highway.stairs" priority="1" numLanes="1" speed="1.39" allow="pedestrian" oneway="1" width="2.00"/>
    <type id="highway.step" priority="1" numLanes="1" speed="1.39" allow="pedestrian" oneway="1" width="2.00"/>
    <type id="highway.steps" priority="1" numLanes="1" speed="1.39" allow="pedestrian" oneway="1" width="2.00"/>
    <type id="highway.tertiary" priority="6" numLanes="1" speed="22.22" disallow="tram rail_urban rail rail_electric ship automated" oneway="0"/>
    <type id="highway.tertiary_link" priority="5" numLanes="1" speed="22.22" disallow="tram rail_urban rail rail_electric ship automated" oneway="0"/>
    <type id="highway.track" priority="1" numLanes="1" speed="5.56" disallow="tram rail_urban rail rail_electric ship automated" oneway="0"/>
    <type id="highway.trunk" priority="11" numLanes="2" speed="27.78" allow="private emergency authority army vip passenger hov taxi bus coach delivery truck trailer motorcycle moped evehicle custom1 custom2" oneway="0"/>
    <type id="highway.trunk_link" priority="10" numLanes="1" speed="22.22" allow="private emergency authority army vip passenger hov taxi bus coach delivery truck trailer motorcycle moped evehicle custom1 custom2" oneway="0"/>
    <type id="highway.unclassified" priority="5" numLanes="1" speed="13.89" disallow="tram rail_urban rail rail_electric ship automated" oneway="0"/>
    <type id="highway.unsurfaced" priority="1" numLanes="1" speed="8.33" disallow="tram rail_urban rail rail_electric ship automated" oneway="0"/>
    <type id="railway.light_rail" priority="15" numLanes="1" speed="27.78" allow="rail_urban" oneway="1"/>
    <type id="railway.preserved" priority="15" numLanes="1" speed="27.78" allow="rail" oneway="1"/>
    <type id="railway.rail" priority="15" numLanes="1" speed="83.33" allow="rail rail_electric" oneway="1"/>
    <type id="railway.subway" priority="15" numLanes="1" speed="27.78" allow="rail_urban" oneway="1"/>
    <type id="railway.tram" priority="15" numLanes="1" speed="13.89" allow="tram" oneway="1"/>

    <edge id=":1000099468_0" function="internal">
        <lane id=":1000099468_0_0" index="0" allow="delivery bicycle pedestrian" speed="5.56" length="4.67" shape="1053.11,1515.09 1051.81,1515.72 1050.92,1515.66 1050.43,1514.91 1050.35,1513.47"/>
    </edge>
    <edge id=":1000099475_0" function="internal">
        <lane id=":1000099475_0_0" index="0" disallow="tram rail_urban rail rail_electric ship automated" speed="18.05" length="7.21" shape="934.42,1789.73 933.29,1789.07 931.18,1788.47 928.97,1788.00 927.55,1787.73"/>
    </edge>
    <edge id=":1000099475_1" function="internal">
        <lane id=":1000099475_1_0" index="0" disallow="tram rail_urban rail rail_electric ship automated" speed="18.05" length="9.98" shape="937.27,1788.27 936.30,1787.27 934.47,1786.32 931.76,1785.43 928.18,1784.59"/>
    </edge>
    <edge id=":1000099490_0" function="internal">
        <lane id=":1000099490_0_0" index="0" disallow="tram rail_urban rail rail_electric ship automated" speed="13.89" length="4.26" shape="1192.74,1650.36 1190.64,1646.66"/>
    </edge>
    <edge id=":1000099503_0" function="internal">
        <lane id=":1000099503_0_0" index="0" disallow="tram rail_urban rail rail_electric ship automated" speed="15.27" length="4.16" shape="1019.80,1746.27 1019.15,1745.08 1018.42,1744.34 1017.61,1744.06 1016.73,1744.24"/>
    </edge>
    <edge id=":1000099503_1" function="internal">
        <lane id=":1000099503_1_0" index="0" allow="bicycle" speed="8.33" length="10.93" width="1.00" shape="1019.80,1746.27 1015.48,1736.23"/>
    </edge>
    <edge id=":1000099503_2" function="internal">
        <lane id=":1000099503_2_0" index="0" allow="bicycle" speed="8.33" length="1.46" width="1.00" shape="1019.80,1746.27 1019.88,1745.83 1020.06,1745.62 1020.34,1745.63 1020.72,1745.88"/>
    </edge>
    <edge id=":1000099503_3" function="internal">
        <lane id=":1000099503_3_0" index="0" allow="bicycle" speed="15.27" length="4.24" width="1.00" shape="1021.40,1742.17 1020.64,1742.72 1020.27,1743.52 1020.30,1744.57 1020.72,1745.88"/>
    </edge>
    <edge id=":1000099503_4" function="internal">
        <lane id=":1000099503_4_0" index="0" disallow="tram rail_urban rail rail_electric ship automated" speed="22.22" length="5.11" shape="1021.40,1742.17 1016.73,1744.24"/>
        <lane id=":1000099503_4_1" index="1" disallow="tram rail_urban rail rail_electric ship automated" speed="22.22" length="5.11" shape="1020.10,1739.24 1015.43,1741.32"/>
        <lane id=":1000099503_4_2" index="2" disallow="tram rail_urban rail rail_electric ship automated" speed="22.22" length="5.11" shape="1018.81,1736.32 1014.13,1738.39"/>
    </edge>
    <edge id=":1000099503_7" function="internal">
        <lane id=":1000099503_7_0" index="0" allow="bicycle" speed="15.27" length="3.67" width="1.00" shape="1018.81,1736.32 1017.56,1736.77 1016.59,1736.91 1015.90,1736.73 1015.48,1736.23"/>
    </edge>
    <edge id=":1000099503_8" function="internal">
        <lane id=":1000099503_8_0" index="0" allow="bicycle" speed="8.33" length="10.98" width="1.00" shape="1016.38,1735.79 1020.72,1745.88"/>
    </edge>
    <edge id=":1000099503_9" function="internal">
        <lane id=":1000099503_9_0" index="0" disallow="tram rail_urban rail rail_electric ship automated" speed="15.27" length="3.79" shape="1016.38,1735.79 1016.46,1736.46 1016.11,1737.11 1015.33,1737.76 1014.13,1738.39"/>
    </edge>
    <edge id=":1000099503_10" function="internal">
        <lane id=":1000099503_10_0" index="0" allow="bicycle" speed="8.33" length="1.46" width="1.00" shape="1016.38,1735.79 1016.32,1736.23 1016.15,1736.46 1015.87,1736.45 1015.48,1736.23"/>
    </edge>
    <edge id=":1000099544_0" function="internal">
        <lane id=":1000099544_0_0" index="0" allow="delivery bicycle pedestrian" speed="5.56" length="3.00" shape="992.27,1474.69 989.34,1474.01"/>
    </edge>
    <edge id=":1000099544_1" function="internal">
        <lane id=":1000099544_1_0" index="0" allow="delivery bicycle pedestrian" speed="5.56" length="2.34" shape="992.27,1474.69 991.28,1473.64 991.07,1472.77"/>
    </edge>
    <edge id=":1000099544_4" function="internal">
        <lane id=":1000099544_4_0" index="0" speed="5.56" length="2.34" shape="991.07,1472.77 991.64,1472.08 992.99,1471.57"/>
    </edge>
    <edge id=":1000099544_2" function="internal">
        <lane id=":1000099544_2_0" index="0" allow="delivery bicycle pedestrian" speed="5.56" length="3.00" shape="990.08,1470.89 992.99,1471.57"/>
    </edge>
    <edge id=":1000099544_3" function="internal">
        <lane id=":1000099544_3_0" index="0" allow="delivery bicycle pedestrian" speed="5.56" length="2.34" shape="990.08,1470.89 991.06,1471.94 991.27,1472.81"/>
    </edge>
    <edge id=":1000099544_5" function="internal">
        <lane id=":1000099544_5_0" index="0" speed="5.56" length="2.34" shape="991.27,1472.81 990.70,1473.50 989.34,1474.01"/>
    </edge>
    <edge id=":1000099553_0" function="internal">
        <lane id=":1000099553_0_0" index="0" allow="bicycle pedestrian" speed="2.78" length="4.80" width="2.00" shape="971.27,1630.87 970.70,1629.57 970.21,1628.72 969.55,1628.00 968.47,1627.08"/>
    </edge>
    <edge id=":1000099576_0" function="internal">
        <lane id=":1000099576_0_0" index="0" allow="delivery bicycle pedestrian" speed="4.17" length="4.56" shape="941.53,1786.98 942.16,1788.20 942.95,1788.93 943.90,1789.17 945.00,1788.92"/>
    </edge>
    <edge id=":1000099576_1" function="internal">
        <lane id=":1000099576_1_0" index="0" allow="bicycle pedestrian" speed="2.78" length="3.10" width="2.00" shape="941.53,1786.98 941.86,1788.35 941.74,1789.52 941.48,1789.97"/>
    </edge>
    <edge id=":1000099576_4" function="internal">
        <lane id=":1000099576_4_0" index="0" speed="2.78" length="1.91" width="2.00" shape="941.48,1789.97 941.17,1790.50 940.14,1791.29"/>
    </edge>
    <edge id=":1000099576_2" function="internal">
        <lane id=":1000099576_2_0" index="0" allow="bicycle pedestrian" speed="4.17" length="4.22" width="2.00" shape="941.34,1793.68 941.75,1792.12 941.69,1791.20 941.15,1790.92 940.14,1791.29"/>
    </edge>
    <edge id=":1000099576_3" function="internal">
        <lane id=":1000099576_3_0" index="0" allow="delivery bicycle pedestrian" speed="5.56" length="3.46" shape="941.34,1793.68 942.05,1791.97 942.90,1790.60"/>
    </edge>
    <edge id=":1000099576_5" function="internal">
        <lane id=":1000099576_5_0" index="0" speed="5.56" length="2.71" shape="942.90,1790.60 943.88,1789.59 945.00,1788.92"/>
    </edge>
    <edge id=":1000099591_0" function="internal">
        <lane id=":1000099591_0_0" index="0" disallow="tram rail_urban rail rail_electric ship automated" speed="8.34" length="3.67" shape="1028.86,1745.52 1028.10,1746.01 1027.70,1746.69 1027.67,1747.56 1027.99,1748.62"/>
    </edge>
    <edge id=":1000099591_1" function="internal">
        <lane id=":1000099591_1_0" index="0" allow="bicycle pedestrian" speed="2.78" length="5.15" width="2.00" shape="1028.86,1745.52 1024.11,1747.52"/>
    </edge>
    <edge id=":1000099591_2" function="internal">
        <lane id=":1000099591_2_0" index="0" disallow="tram rail_urban rail rail_electric ship automated" speed="13.89" length="5.04" shape="1025.96,1744.00 1027.99,1748.62"/>
    </edge>
    <edge id=":1000099591_3" function="internal">
        <lane id=":1000099591_3_0" index="0" allow="bicycle pedestrian" speed="8.34" length="4.54" width="2.00" shape="1025.96,1744.00 1026.23,1745.09 1026.01,1746.04 1025.30,1746.85 1024.11,1747.52"/>
    </edge>
    <edge id=":1000099607_0" function="internal">
        <lane id=":1000099607_0_0" index="0" allow="bicycle pedestrian" speed="5.55" length="2.22" width="2.00" shape="1015.40,1736.04 1015.22,1735.42 1015.21,1734.96 1015.21,1734.50 1015.05,1733.87"/>
    </edge>
    <edge id=":1000099607_1" function="internal">
        <lane id=":1000099607_1_0" index="0" allow="bicycle" speed="8.33" length="1.46" width="1.00" shape="1015.40,1736.04 1015.46,1735.60 1015.63,1735.37 1015.91,1735.38 1016.30,1735.60"/>
    </edge>
    <edge id=":1000099651_0" function="internal">
        <lane id=":1000099651_0_0" index="0" allow="bicycle pedestrian" speed="2.78" length="4.04" width="2.00" shape="1022.34,1750.99 1021.78,1750.04 1021.04,1749.50 1020.14,1749.37 1019.07,1749.65"/>
    </edge>
    <edge id=":1000099651_1" function="internal">
        <lane id=":1000099651_1_0" index="0" allow="bicycle" speed="5.55" length="5.04" width="1.00" shape="1022.34,1750.99 1021.70,1749.65 1021.15,1748.78 1020.59,1747.91 1019.93,1746.57"/>
    </edge>
    <edge id=":1000099651_2" function="internal">
        <lane id=":1000099651_2_0" index="0" allow="bicycle pedestrian" speed="2.78" length="5.00" width="2.00" shape="1023.68,1747.71 1019.07,1749.65"/>
    </edge>
    <edge id=":1000099651_3" function="internal">
        <lane id=":1000099651_3_0" index="0" allow="bicycle" speed="5.55" length="4.45" width="1.00" shape="1023.68,1747.71 1022.41,1748.07 1021.36,1748.01 1020.53,1747.51 1019.93,1746.57"/>
    </edge>
    <edge id=":1000099651_4" function="internal">
        <lane id=":1000099651_4_0" index="0" allow="bicycle pedestrian" speed="5.55" length="4.45" width="2.00" shape="1020.85,1746.18 1021.11,1747.26 1020.90,1748.20 1020.22,1749.00 1019.07,1749.65"/>
    </edge>
    <edge id=":1000099651_5" function="internal">
        <lane id=":1000099651_5_0" index="0" allow="bicycle" speed="8.33" length="1.46" width="1.00" shape="1020.85,1746.18 1020.77,1746.62 1020.59,1746.84 1020.31,1746.82 1019.93,1746.57"/>
    </edge>
    <edge id=":1000099724_0" function="internal">
        <lane id=":1000099724_0_0" index="0" disallow="tram rail_urban rail rail_electric ship automated" speed="22.22" length="4.44" shape="1032.31,1737.42 1028.22,1739.19"/>
        <lane id=":1000099724_0_1" index="1" disallow="tram rail_urban rail rail_electric ship automated" speed="22.22" length="4.44" shape="1031.03,1734.49 1026.95,1736.25"/>
        <lane id=":1000099724_0_2" index="2" disallow="tram rail_urban rail rail_electric ship automated" speed="22.22" length="4.44" shape="1029.76,1731.55 1025.69,1733.31"/>
    </edge>
    <edge id=":1000099741_0" function="internal">
        <lane id=":1000099741_0_0" index="0" disallow="tram rail_urban rail rail_electric ship automated" speed="13.89" length="11.27" shape="1197.60,1572.63 1199.73,1575.36 1201.30,1577.19 1202.63,1579.13 1204.07,1582.24"/>
        <lane id=":1000099741_0_1" index="1" disallow="tram rail_urban rail rail_electric ship automated" speed="13.89" length="11.27" shape="1195.00,1574.48 1196.99,1577.03 1198.48,1578.72 1199.74,1580.53 1201.10,1583.42"/>
    </edge>
    <edge id=":1000099741_2" function="internal">
        <lane id=":1000099741_2_0" index="0" disallow="tram rail_urban rail rail_electric ship automated" speed="13.89" length="11.00" shape="1192.58,1579.61 1195.25,1578.63 1197.56,1578.93 1199.51,1580.53 1201.10,1583.42"/>
    </edge>
    <edge id=":1000099741_3" function="internal">
        <lane id=":1000099741_3_0" index="0" disallow="tram rail_urban rail rail_electric ship automated" speed="13.89" length="8.39" shape="1192.58,1579.61 1194.01,1579.30 1195.42,1580.03 1196.79,1581.80 1198.12,1584.60"/>
    </edge>
    <edge id=":1000099788_0" function="internal">
        <lane id=":1000099788_0_0" index="0" allow="delivery bicycle pedestrian" speed="5.56" length="5.09" shape="1000.33,1449.84 995.43,1448.43"/>
    </edge>
    <edge id=":1000099788_1" function="internal">
        <lane id=":1000099788_1_0" index="0" allow="delivery bicycle pedestrian" speed="5.56" length="2.34" shape="1000.33,1449.84 999.42,1448.71 999.29,1447.83"/>
    </edge>
    <edge id=":1000099788_4" function="internal">
        <lane id=":1000099788_4_0" index="0" speed="5.56" length="2.34" shape="999.29,1447.83 999.91,1447.18 1001.29,1446.79"/>
    </edge>
    <edge id=":1000099788_2" function="internal">
        <lane id=":1000099788_2_0" index="0" allow="delivery bicycle pedestrian" speed="5.56" length="5.28" shape="996.22,1445.33 1001.29,1446.79"/>
    </edge>
    <edge id=":1000099788_3" function="internal">
        <lane id=":1000099788_3_0" index="0" allow="delivery bicycle pedestrian" speed="5.56" length="2.34" shape="996.22,1445.33 997.18,1446.40 997.38,1447.28"/>
    </edge>
    <edge id=":1000099788_5" function="internal">
        <lane id=":1000099788_5_0" index="0" speed="5.56" length="2.34" shape="997.38,1447.28 996.79,1447.95 995.43,1448.43"/>
    </edge>
    <edge id=":1012326820_0" function="internal">
        <lane id=":1012326820_0_0" index="0" allow="delivery bicycle pedestrian" speed="5.56" length="4.67" shape="796.67,1452.42 795.84,1451.24 795.76,1450.35 796.42,1449.75 797.83,1449.44"/>
    </edge>
    <edge id=":1037290808_0" function="internal">
        <lane id=":1037290808_0_0" index="0" allow="delivery bicycle pedestrian" speed="5.56" length="4.71" shape="1019.90,1422.08 1018.68,1422.37 1017.75,1422.96 1017.11,1423.86 1016.76,1425.06"/>
    </edge>
    <edge id=":1037290808_1" function="internal">
        <lane id=":1037290808_1_0" index="0" allow="delivery bicycle pedestrian" speed="5.56" length="8.57" shape="1019.90,1422.08 1017.38,1422.28 1015.62,1422.19 1013.95,1421.65 1011.69,1420.53"/>
    </edge>
    <edge id=":1037290808_2" function="internal">
        <lane id=":1037290808_2_0" index="0" allow="delivery bicycle pedestrian" speed="5.56" length="4.67" shape="1019.90,1422.08 1018.63,1421.40 1018.15,1420.64 1018.47,1419.81 1019.58,1418.89"/>
    </edge>
    <edge id=":1037290808_3" function="internal">
        <lane id=":1037290808_3_0" index="0" allow="delivery bicycle pedestrian" speed="5.56" length="6.67" shape="1013.19,1417.70 1014.95,1418.57 1016.25,1418.99 1017.62,1419.06 1019.58,1418.89"/>
    </edge>
    <edge id=":1037290808_4" function="internal">
        <lane id=":1037290808_4_0" index="0" allow="delivery bicycle pedestrian" speed="5.56" length="8.79" shape="1013.19,1417.70 1015.04,1419.02 1016.25,1420.69 1016.83,1422.70 1016.76,1425.06"/>
    </edge>
    <edge id=":1037290808_5" function="internal">
        <lane id=":1037290808_5_0" index="0" allow="delivery bicycle pedestrian" speed="5.56" length="4.67" shape="1013.19,1417.70 1013.88,1418.97 1013.86,1419.86 1013.13,1420.38 1011.69,1420.53"/>
    </edge>
    <edge id=":1037290808_6" function="internal">
        <lane id=":1037290808_6_0" index="0" allow="delivery bicycle pedestrian" speed="5.56" length="4.80" shape="1013.59,1424.57 1013.64,1423.27 1013.33,1422.16 1012.69,1421.24 1011.69,1420.53"/>
    </edge>
    <edge id=":1037290808_7" function="internal">
        <lane id=":1037290808_7_0" index="0" allow="delivery bicycle pedestrian" speed="5.56" length="8.98" shape="1013.59,1424.57 1014.27,1422.28 1015.49,1420.57 1017.26,1419.44 1019.58,1418.89"/>
    </edge>
    <edge id=":1037290808_8" function="internal">
        <lane id=":1037290808_8_0" index="0" allow="delivery bicycle pedestrian" speed="5.56" length="4.67" shape="1013.59,1424.57 1014.57,1423.51 1015.42,1423.23 1016.15,1423.75 1016.76,1425.06"/>
    </edge>
    <edge id=":1037290822_0" function="internal">
        <lane id=":1037290822_0_0" index="0" allow="delivery bicycle pedestrian" speed="5.56" length="0.10" shape="1000.47,1365.29 1000.45,1365.38"/>
    </edge>
    <edge id=":1037290822_1" function="internal">
        <lane id=":1037290822_1_0" index="0" allow="delivery bicycle pedestrian" speed="5.56" length="4.67" shape="1000.47,1365.29 999.42,1366.28 998.55,1366.49 997.86,1365.92 997.35,1364.57"/>
    </edge>
    <edge id=":1037290822_2" function="internal">
        <lane id=":1037290822_2_0" index="0" allow="delivery bicycle pedestrian" speed="5.56" length="0.17" shape="997.31,1364.74 997.35,1364.57"/>
    </edge>
    <edge id=":1037290822_3" function="internal">
        <lane id=":1037290822_3_0" index="0" allow="delivery bicycle pedestrian" speed="5.56" length="4.67" shape="997.31,1364.74 998.33,1363.72 999.20,1363.49 999.90,1364.04 1000.45,1365.38"/>
    </edge>
    <edge id=":1037290863_0" function="internal">
        <lane id=":1037290863_0_0" index="0" disallow="tram rail_urban rail rail_electric ship automated" speed="13.89" length="8.63" shape="1002.58,1370.59 994.12,1368.84"/>
    </edge>
    <edge id=":1037290863_1" function="internal">
        <lane id=":1037290863_1_0" index="0" allow="delivery bicycle pedestrian" speed="9.73" length="6.66" shape="1002.58,1370.59 999.87,1370.01 997.97,1369.42 996.88,1368.82 996.60,1368.22"/>
    </edge>
    <edge id=":1037290863_2" function="internal">
        <lane id=":1037290863_2_0" index="0" disallow="tram rail_urban rail rail_electric ship automated" speed="9.73" length="5.91" shape="999.75,1368.79 999.30,1369.28 998.21,1369.45 996.49,1369.30 994.12,1368.84"/>
    </edge>
    <edge id=":1037290863_3" function="internal">
        <lane id=":1037290863_3_0" index="0" allow="delivery bicycle pedestrian" speed="5.56" length="4.67" shape="999.75,1368.79 998.75,1369.83 997.89,1370.08 997.18,1369.55 996.60,1368.22"/>
    </edge>
    <edge id=":1037290889_0" function="internal">
        <lane id=":1037290889_0_0" index="0" allow="delivery bicycle pedestrian" speed="5.56" length="0.81" shape="1022.92,1401.96 1022.74,1401.80 1022.60,1401.70 1022.45,1401.64 1022.22,1401.58"/>
    </edge>
    <edge id=":1037290889_1" function="internal">
        <lane id=":1037290889_1_0" index="0" allow="delivery bicycle pedestrian" speed="5.56" length="1.96" shape="1022.92,1401.96 1022.57,1400.56 1022.71,1400.06"/>
    </edge>
    <edge id=":1037290889_4" function="internal">
        <lane id=":1037290889_4_0" index="0" speed="5.56" length="2.71" shape="1022.71,1400.06 1022.82,1399.70 1023.65,1399.37 1025.08,1399.59"/>
    </edge>
    <edge id=":1037290889_2" function="internal">
        <lane id=":1037290889_2_0" index="0" allow="delivery bicycle pedestrian" speed="5.56" length="2.43" shape="1022.97,1398.47 1023.66,1398.65 1024.13,1398.84 1024.54,1399.12 1025.08,1399.59"/>
    </edge>
    <edge id=":1037290889_3" function="internal">
        <lane id=":1037290889_3_0" index="0" allow="delivery bicycle pedestrian" speed="5.56" length="2.71" shape="1022.97,1398.47 1023.95,1399.53 1024.15,1400.40 1023.90,1400.69"/>
    </edge>
    <edge id=":1037290889_5" function="internal">
        <lane id=":1037290889_5_0" index="0" speed="5.56" length="1.96" shape="1023.90,1400.69 1023.57,1401.09 1022.22,1401.58"/>
    </edge>
    <edge id=":1037290915_0" function="internal">
        <lane id=":1037290915_0_0" index="0" disallow="tram rail_urban rail rail_electric ship automated" speed="9.73" length="4.15" shape="1014.68,1438.63 1014.70,1439.60 1015.08,1440.44 1015.81,1441.16 1016.89,1441.76"/>
    </edge>
    <edge id=":1037290915_1" function="internal">
        <lane id=":1037290915_1_0" index="0" allow="delivery bicycle pedestrian" speed="5.56" length="4.68" shape="1014.68,1438.63 1013.74,1439.73 1012.90,1440.03 1012.16,1439.54 1011.50,1438.25"/>
    </edge>
    <edge id=":1037290915_2" function="internal">
        <lane id=":1037290915_2_0" index="0" allow="delivery bicycle pedestrian" speed="9.73" length="3.80" shape="1008.08,1438.42 1009.50,1438.83 1010.55,1438.93 1011.22,1438.74 1011.50,1438.25"/>
    </edge>
    <edge id=":1037290915_3" function="internal">
        <lane id=":1037290915_3_0" index="0" disallow="tram rail_urban rail rail_electric ship automated" speed="13.89" length="9.31" shape="1008.08,1438.42 1016.89,1441.76"/>
        <lane id=":1037290915_3_1" index="1" disallow="tram rail_urban rail rail_electric ship automated" speed="13.89" length="9.31" shape="1007.04,1441.45 1015.64,1444.70"/>
    </edge>
    <edge id=":1037290944_0" function="internal">
        <lane id=":1037290944_0_0" index="0" allow="delivery bicycle pedestrian" speed="5.56" length="4.67" shape="1001.00,1348.72 1002.05,1347.73 1002.92,1347.52 1003.61,1348.09 1004.12,1349.44"/>
    </edge>
    <edge id=":1040964328_0" function="internal">
        <lane id=":1040964328_0_0" index="0" allow="bicycle pedestrian" speed="2.78" length="5.41" width="2.00" shape="939.75,1583.53 939.16,1582.04 938.84,1580.99 938.65,1579.90 938.47,1578.31"/>
    </edge>
    <edge id=":1045044692_0" function="internal">
        <lane id=":1045044692_0_0" index="0" allow="bicycle pedestrian" speed="2.78" length="4.44" width="2.00" shape="969.46,1433.40 968.43,1432.31 967.73,1431.32 967.37,1430.44 967.35,1429.66"/>
    </edge>
    <edge id=":1045044863_0" function="internal">
        <lane id=":1045044863_0_0" index="0" allow="bicycle pedestrian" speed="2.78" length="5.21" width="2.00" shape="954.22,1614.89 953.08,1613.85 952.30,1613.11 951.69,1612.25 951.04,1610.87"/>
    </edge>
    <edge id=":1062771951_0" function="internal">
        <lane id=":1062771951_0_0" index="0" disallow="tram rail_urban rail rail_electric ship automated" speed="9.73" length="4.99" shape="1302.72,1632.40 1301.94,1631.27 1301.00,1630.66 1299.87,1630.56 1298.57,1630.98"/>
    </edge>
    <edge id=":1062771951_1" function="internal">
        <lane id=":1062771951_1_0" index="0" allow="delivery bicycle pedestrian" speed="5.56" length="4.67" shape="1302.72,1632.40 1302.90,1630.97 1303.44,1630.26 1304.34,1630.26 1305.59,1630.98"/>
    </edge>
    <edge id=":1062771951_2" function="internal">
        <lane id=":1062771951_2_0" index="0" allow="delivery bicycle pedestrian" speed="9.73" length="3.78" shape="1305.02,1627.46 1304.72,1627.90 1304.72,1628.63 1305.00,1629.66 1305.59,1630.98"/>
    </edge>
    <edge id=":1062771951_3" function="internal">
        <lane id=":1062771951_3_0" index="0" disallow="tram rail_urban rail rail_electric ship automated" speed="13.89" length="7.36" shape="1305.02,1627.46 1303.19,1628.64 1301.89,1629.38 1300.54,1630.04 1298.57,1630.98"/>
    </edge>
    <edge id=":1062771990_0" function="internal">
        <lane id=":1062771990_0_0" index="0" allow="delivery bicycle pedestrian" speed="5.56" length="4.67" shape="1268.02,1656.92 1266.65,1656.45 1266.06,1655.78 1266.25,1654.90 1267.20,1653.82"/>
    </edge>
    <edge id=":1109589944_0" function="internal">
        <lane id=":1109589944_0_0" index="0" allow="delivery bicycle pedestrian" speed="5.56" length="8.80" shape="979.73,1482.66 979.52,1480.10 978.74,1478.10 977.39,1476.67 975.46,1475.80"/>
    </edge>
    <edge id=":1109589944_1" function="internal">
        <lane id=":1109589944_1_0" index="0" allow="delivery bicycle pedestrian" speed="5.56" length="11.85" shape="979.73,1482.66 980.24,1478.83 981.52,1476.34 983.56,1475.17 986.38,1475.34"/>
    </edge>
    <edge id=":1109589944_2" function="internal">
        <lane id=":1109589944_2_0" index="0" allow="delivery bicycle pedestrian" speed="5.56" length="4.68" shape="979.73,1482.66 980.07,1481.26 980.69,1480.61 981.58,1480.71 982.74,1481.56"/>
    </edge>
    <edge id=":1109589944_3" function="internal">
        <lane id=":1109589944_3_0" index="0" allow="delivery bicycle pedestrian" speed="5.56" length="6.03" shape="985.58,1478.44 983.74,1478.20 982.66,1478.64 982.33,1479.77 982.74,1481.56"/>
    </edge>
    <edge id=":1109589944_4" function="internal">
        <lane id=":1109589944_4_0" index="0" allow="delivery bicycle pedestrian" speed="5.56" length="10.46" shape="985.58,1478.44 975.46,1475.80"/>
    </edge>
    <edge id=":1109589944_5" function="internal">
        <lane id=":1109589944_5_0" index="0" allow="delivery bicycle pedestrian" speed="5.56" length="4.67" shape="985.58,1478.44 984.62,1477.36 984.43,1476.49 985.02,1475.81 986.38,1475.34"/>
    </edge>
    <edge id=":1109589944_6" function="internal">
        <lane id=":1109589944_6_0" index="0" allow="delivery bicycle pedestrian" speed="5.56" length="10.45" shape="976.27,1472.71 986.38,1475.34"/>
    </edge>
    <edge id=":1109589944_7" function="internal">
        <lane id=":1109589944_7_0" index="0" allow="delivery bicycle pedestrian" speed="5.56" length="11.30" shape="976.27,1472.71 978.00,1473.61 979.66,1475.38 981.24,1478.04 982.74,1481.56"/>
    </edge>
    <edge id=":1109589944_8" function="internal">
        <lane id=":1109589944_8_0" index="0" allow="delivery bicycle pedestrian" speed="5.56" length="4.67" shape="976.27,1472.71 977.23,1473.78 977.41,1474.66 976.82,1475.33 975.46,1475.80"/>
    </edge>
    <edge id=":1109589987_0" function="internal">