<?xml version="1.0" ?>
<tlLogics>
   <tlLogic id="1000099503" offset="0" programID="0" type="static">
      <phase duration="17.1082792538" state="GGGrrrrrrrr"/>
      <phase duration="4.09147167598" state="yyyrrrrrrrr"/>
      <phase duration="17.1082792538" state="rrrGGGrrrrr"/>
      <phase duration="4.09147167598" state="rrryyyrrrrr"/>
      <phase duration="17.1082792538" state="rrrrrrGGGGG"/>
      <phase duration="4.09147167598" state="rrrrrryyyyy"/>
   </tlLogic>
   <tlLogic id="1000099551" offset="0" programID="0" type="static">
      <phase duration="24.4282347469" state="G"/>
      <phase duration="3.33945111349" state="y"/>
   </tlLogic>
   <tlLogic id="1000099607" offset="0" programID="0" type="static">
      <phase duration="17.8270835245" state="GGr"/>
      <phase duration="8.13886568768" state="yyr"/>
      <phase duration="17.8270835245" state="rrG"/>
      <phase duration="8.13886568768" state="rry"/>
   </tlLogic>
   <tlLogic id="1000099651" offset="0" programID="0" type="static">
      <phase duration="15.1003332756" state="GGrrrr"/>
      <phase duration="2.70932767023" state="yyrrrr"/>
      <phase duration="15.1003332756" state="rrGGrr"/>
      <phase duration="2.70932767023" state="rryyrr"/>
      <phase duration="15.1003332756" state="rrrrGG"/>
      <phase duration="2.70932767023" state="rrrryy"/>
   </tlLogic>
   <tlLogic id="1012321567" offset="0" programID="0" type="static">
      <phase duration="13.2005909567" state="Gr"/>
      <phase duration="4.54405440895" state="yr"/>
      <phase duration="13.2005909567" state="rG"/>
      <phase duration="4.54405440895" state="ry"/>
   </tlLogic>
   <tlLogic id="1012321573" offset="0" programID="0" type="static">
      <phase duration="15.2244716907" state="Gr"/>
      <phase duration="8.5925588582" state="yr"/>
      <phase duration="15.2244716907" state="rG"/>
      <phase duration="8.5925588582" state="ry"/>
   </tlLogic>
   <tlLogic id="1037290808" offset="0" programID="0" type="static">
      <phase duration="10.9523582856" state="GGGrrrrrr"/>
      <phase duration="8.02540860897" state="yyyrrrrrr"/>
      <phase duration="10.9523582856" state="rrrGGGrrr"/>
      <phase duration="8.02540860897" state="rrryyyrrr"/>
      <phase duration="10.9523582856" state="rrrrrrGGG"/>
      <phase duration="8.02540860897" state="rrrrrryyy"/>
   </tlLogic>
   <tlLogic id="1037290822" offset="0" programID="0" type="static">
      <phase duration="17.6378996583" state="GGrr"/>
      <phase duration="7.72877449099" state="yyrr"/>
      <phase duration="17.6378996583" state="rrGG"/>
      <phase duration="7.72877449099" state="rryy"/>
   </tlLogic>
   <tlLogic id="1037290889" offset="0" programID="0" type="static">
      <phase duration="23.1337962609" state="GGrr"/>
      <phase duration="8.4911947723" state="yyrr"/>
      <phase duration="23.1337962609" state="rrGG"/>
      <phase duration="8.4911947723" state="rryy"/>
   </tlLogic>
   <tlLogic id="1040964333" offset="0" programID="0" type="static">
      <phase duration="16.5020452875" state="Gr"/>
      <phase duration="6.63748555951" state="yr"/>
      <phase duration="16.5020452875" state="rG"/>
      <phase duration="6.63748555951" state="ry"/>
   </tlLogic>
   <tlLogic id="1045044715" offset="0" programID="0" type="static">
      <phase duration="12.4322874495" state="Gr"/>
      <phase duration="3.62206463069" state="yr"/>
      <phase duration="12.4322874495" state="rG"/>
      <phase duration="3.62206463069" state="ry"/>
   </tlLogic>
   <tlLogic id="1045044750" offset="0" programID="0" type="static">
      <phase duration="29.8004810199" state="Gr"/>
      <phase duration="7.2563843021" state="yr"/>
      <phase duration="29.8004810199" state="rG"/>
      <phase duration="7.2563843021" state="ry"/>
   </tlLogic>
   <tlLogic id="1045044796" offset="0" programID="0" type="static">
      <phase duration="28.3940555498" state="Gr"/>
      <phase duration="3.22347264101" state="yr"/>
      <phase duration="28.3940555498" state="rG"/>
      <phase duration="3.22347264101" state="ry"/>
   </tlLogic>
   <tlLogic id="1045044863" offset="0" programID="0" type="static">
      <phase duration="28.5053758853" state="G"/>
      <phase duration="4.18499231223" state="y"/>
   </tlLogic>
   <tlLogic id="1109589987" offset="0" programID="0" type="static">
      <phase duration="34.9837317259" state="GGrr"/>
      <phase duration="6.95601926015" state="yyrr"/>
      <phase duration="34.9837317259" state="rrGG"/>
      <phase duration="6.95601926015" state="rryy"/>
   </tlLogic>
   <tlLogic id="1149210260" offset="0" programID="0" type="static">
      <phase duration="22.0591753058" state="Gr"/>
      <phase duration="5.34513145298" state="yr"/>
      <phase duration="22.0591753058" state="rG"/>
      <phase duration="5.34513145298" state="ry"/>
   </tlLogic>
   <tlLogic id="1150667539" offset="0" programID="0" type="static">
      <phase duration="13.657962755" state="G"/>
      <phase duration="5.40097819715" state="y"/>
   </tlLogic>
   <tlLogic id="1150667540" offset="0" programID="0" type="static">
      <phase duration="24.9385536041" state="G"/>
      <phase duration="6.17765319906" state="y"/>
   </tlLogic>
   <tlLogic id="1150667555" offset="0" programID="0" type="static">
      <phase duration="21.3910326081" state="Gr"/>
      <phase duration="8.55453047434" state="yr"/>
      <phase duration="21.3910326081" state="rG"/>
      <phase duration="8.55453047434" state="ry"/>
   </tlLogic>
   <tlLogic id="1150667558" offset="0" programID="0" type="static">
      <phase duration="8.35504216452" state="Gr"/>
      <phase duration="9.61596002921" state="yr"/>
      <phase duration="8.35504216452" state="rG"/>
      <phase duration="9.61596002921" state="ry"/>
   </tlLogic>
   <tlLogic id="1150667560" offset="0" programID="0" type="static">
      <phase duration="19.9111875338" state="G"/>
      <phase duration="4.87355030368" state="y"/>
   </tlLogic>
   <tlLogic id="1150667568" offset="0" programID="0" type="static"/>
   <tlLogic id="1150667571" offset="0" programID="0" type="static">
      <phase duration="19.7982669494" state="G"/>
      <phase duration="3.3080789605" state="y"/>
   </tlLogic>
   <tlLogic id="1150667586" offset="0" programID="0" type="static">
      <phase duration="11.8440148289" state="G"/>
      <phase duration="6.51843387381" state="y"/>
   </tlLogic>
   <tlLogic id="1150667608" offset="0" programID="0" type="static">
      <phase duration="30.8438771991" state="Gr"/>
      <phase duration="4.11854830801" state="yr"/>
      <phase duration="30.8438771991" state="rG"/>
      <phase duration="4.11854830801" state="ry"/>
   </tlLogic>
   <tlLogic id="1150667618" offset="0" programID="0" type="static">
      <phase duration="27.3337400305" state="G"/>
      <phase duration="6.38856659183" state="y"/>
   </tlLogic>
   <tlLogic id="1156723779" offset="0" programID="0" type="static">
      <phase duration="30.3812175122" state="GGrrr"/>
      <phase duration="8.65032116968" state="yyrrr"/>
      <phase duration="30.3812175122" state="rrGrr"/>
      <phase duration="8.65032116968" state="rryrr"/>
      <phase duration="30.3812175122" state="rrrGG"/>
      <phase duration="8.65032116968" state="rrryy"/>
   </tlLogic>
   <tlLogic id="1156723834" offset="0" programID="0" type="static">
      <phase duration="19.1334487903" state="G"/>
      <phase duration="7.06877835149" state="y"/>
   </tlLogic>
   <tlLogic id="1156723839" offset="0" programID="0" type="static">
      <phase duration="25.6740032618" state="Gr"/>
      <phase duration="5.44278251284" state="yr"/>
      <phase duration="25.6740032618" state="rG"/>
      <phase duration="5.44278251284" state="ry"/>
   </tlLogic>
   <tlLogic id="1200892937" offset="0" programID="0" type="static">
      <phase duration="17.5962859708" state="G"/>
      <phase duration="4.71105137979" state="y"/>
   </tlLogic>
   <tlLogic id="1200892960" offset="0" programID="0" type="static">
      <phase duration="34.0086081389" state="Gr"/>
      <phase duration="3.549322557" state="yr"/>
      <phase duration="34.0086081389" state="rG"/>
      <phase duration="3.549322557" state="ry"/>
   </tlLogic>
   <tlLogic id="1201745399" offset="0" programID="0" type="static"/>
   <tlLogic id="1201745409" offset="0" programID="0" type="static">
      <phase duration="30.2661558143" state="G"/>
      <phase duration="6.42314768808" state="y"/>
   </tlLogic>
   <tlLogic id="1211136497" offset="0" programID="0" type="static">
      <phase duration="21.8727808474" state="GGrr"/>
      <phase duration="6.29642666318" state="yyrr"/>
      <phase duration="21.8727808474" state="rrGG"/>
      <phase duration="6.29642666318" state="rryy"/>
   </tlLogic>
   <tlLogic id="1211136870" offset="0" programID="0" type="static">
      <phase duration="25.5734903423" state="GGrr"/>
      <phase duration="4.24738822426" state="yyrr"/>
      <phase duration="25.5734903423" state="rrGG"/>
      <phase duration="4.24738822426" state="rryy"/>
   </tlLogic>
   <tlLogic id="1229522462" offset="0" programID="0" type="static">
      <phase duration="10.0800426461" state="G"/>
      <phase duration="5.05242380294" state="y"/>
   </tlLogic>
   <tlLogic id="1252265070" offset="0" programID="0" type="static"/>
   <tlLogic id="1252285082" offset="0" programID="0" type="static">
      <phase duration="12.6248178657" state="G"/>
      <phase duration="5.61668290113" state="y"/>
   </tlLogic>
   <tlLogic id="1252285085" offset="0" programID="0" type="static">
      <phase duration="33.5282074504" state="Gr"/>
      <phase duration="7.82274012953" state="yr"/>
      <phase duration="33.5282074504" state="rG"/>
      <phase duration="7.82274012953" state="ry"/>
   </tlLogic>
   <tlLogic id="1252285087" offset="0" programID="0" type="static"/>
   <tlLogic id="1252285092" offset="0" programID="0" type="static">
      <phase duration="19.1860370283" state="G"/>
      <phase duration="4.28906581206" state="y"/>
   </tlLogic>
   <tlLogic id="1252285093" offset="0" programID="0" type="static">
      <phase duration="22.114933507" state="Gr"/>
      <phase duration="8.21657660806" state="yr"/>
      <phase duration="22.114933507" state="rG"/>
      <phase duration="8.21657660806" state="ry"/>
   </tlLogic>
   <tlLogic id="1252285107" offset="0" programID="0" type="static">
      <phase duration="28.3415635335" state="G"/>
      <phase duration="5.26655517374" state="y"/>
   </tlLogic>
   <tlLogic id="1252285140" offset="0" programID="0" type="static">
      <phase duration="17.4838706151" state="Gr"/>
      <phase duration="5.81911423231" state="yr"/>
      <phase duration="17.4838706151" state="rG"/>
      <phase duration="5.81911423231" state="ry"/>
   </tlLogic>
   <tlLogic id="1271504738" offset="0" programID="0" type="static">
      <phase duration="14.6660690742" state="Gr"/>
      <phase duration="4.46395087351" state="yr"/>
      <phase duration="14.6660690742" state="rG"/>
      <phase duration="4.46395087351" state="ry"/>
   </tlLogic>
   <tlLogic id="1271504743" offset="0" programID="0" type="static">
      <phase duration="14.0433247834" state="G"/>
      <phase duration="8.8690662572" state="y"/>
   </tlLogic>
   <tlLogic id="1271504747" offset="0" programID="0" type="static">
      <phase duration="24.6602895738" state="Gr"/>
      <phase duration="8.32662391491" state="yr"/>
      <phase duration="24.6602895738" state="rG"/>
      <phase duration="8.32662391491" state="ry"/>
   </tlLogic>
   <tlLogic id="1271504750" offset="0" programID="0" type="static">
      <phase duration="25.5458419934" state="G"/>
      <phase duration="7.16399517456" state="y"/>
   </tlLogic>
   <tlLogic id="1271504755" offset="0" programID="0" type="static">
      <phase duration="23.2881865564" state="GGrrr"/>
      <phase duration="7.6997349393" state="yyrrr"/>
      <phase duration="23.2881865564" state="rrGrr"/>
      <phase duration="7.6997349393" state="rryrr"/>
      <phase duration="23.2881865564" state="rrrGG"/>
      <phase duration="7.6997349393" state="rrryy"/>
   </tlLogic>
   <tlLogic id="1271504756" offset="0" programID="0" type="static">
      <phase duration="21.5424217843" state="Gr"/>
      <phase duration="6.56721873683" state="yr"/>
      <phase duration="21.5424217843" state="rG"/>
      <phase duration="6.56721873683" state="ry"/>
   </tlLogic>
   <tlLogic id="1271504757" offset="0" programID="0" type="static">
      <phase duration="9.83748297342" state="GGrrr"/>
      <phase duration="2.9159435833" state="yyrrr"/>
      <phase duration="9.83748297342" state="rrGrr"/>
      <phase duration="2.9159435833" state="rryrr"/>
      <phase duration="9.83748297342" state="rrrGG"/>
      <phase duration="2.9159435833" state="rrryy"/>
   </tlLogic>
   <tlLogic id="1271504758" offset="0" programID="0" type="static">
      <phase duration="16.4656565497" state="G"/>
      <phase duration="7.08784875522" state="y"/>
   </tlLogic>
   <tlLogic id="1271504762" offset="0" programID="0" type="static">
      <phase duration="12.9133420027" state="G"/>
      <phase duration="5.9588602951" state="y"/>
   </tlLogic>
   <tlLogic id="1271504764" offset="0" programID="0" type="static">
      <phase duration="32.4106372943" state="G"/>
      <phase duration="4.21459663395" state="y"/>
   </tlLogic>
   <tlLogic id="1271504767" offset="0" programID="0" type="static">
      <phase duration="20.2865703553" state="G"/>
      <phase duration="5.94266758805" state="y"/>
   </tlLogic>
   <tlLogic id="1271504774" offset="0" programID="0" type="static">
      <phase duration="12.3465058493" state="G"/>
      <phase duration="5.97585846825" state="y"/>
   </tlLogic>
   <tlLogic id="1271504781" offset="0" programID="0" type="static">
      <phase duration="28.7753689803" state="GGrrr"/>
      <phase duration="4.8141687851" state="yyrrr"/>
      <phase duration="28.7753689803" state="rrGrr"/>
      <phase duration="4.8141687851" state="rryrr"/>
      <phase duration="28.7753689803" state="rrrGG"/>
      <phase duration="4.8141687851" state="rrryy"/>
   </tlLogic>
   <tlLogic id="1271504783" offset="0" programID="0" type="static">
      <phase duration="8.44033538408" state="Gr"/>
      <phase duration="3.69297804313" state="yr"/>
      <phase duration="8.44033538408" state="rG"/>
      <phase duration="3.69297804313" state="ry"/>
   </tlLogic>
   <tlLogic id="1271504788" offset="0" programID="0" type="static">
      <phase duration="22.6006483948" state="GGrrr"/>
      <phase duration="5.88749830915" state="yyrrr"/>
      <phase duration="22.6006483948" state="rrGGG"/>
      <phase duration="5.88749830915" state="rryyy"/>
   </tlLogic>
   <tlLogic id="1271504797" offset="0" programID="0" type="static">
      <phase duration="16.841922655" state="Gr"/>
      <phase duration="5.71132732296" state="yr"/>
      <phase duration="16.841922655" state="rG"/>
      <phase duration="5.71132732296" state="ry"/>
   </tlLogic>
   <tlLogic id="1271504812" offset="0" programID="0" type="static">
      <phase duration="8.24023310315" state="G"/>
      <phase duration="4.95329306335" state="y"/>
   </tlLogic>
   <tlLogic id="1271504813" offset="0" programID="0" type="static">
      <phase duration="19.2648809598" state="G"/>
      <phase duration="3.29158499187" state="y"/>
   </tlLogic>
   <tlLogic id="1271504815" offset="0" programID="0" type="static">
      <phase duration="18.4073891972" state="Gr"/>
      <phase duration="4.75429046975" state="yr"/>
      <phase duration="18.4073891972" state="rG"/>
      <phase duration="4.75429046975" state="ry"/>
   </tlLogic>
   <tlLogic id="1271504827" offset="0" programID="0" type="static">
      <phase duration="28.693130908" state="Gr"/>
      <phase duration="8.50167501006" state="yr"/>
      <phase duration="28.693130908" state="rG"/>
      <phase duration="8.50167501006" state="ry"/>
   </tlLogic>
   <tlLogic id="1271504829" offset="0" programID="0" type="static">
      <phase duration="23.5304750569" state="Gr"/>
      <phase duration="8.57325801393" state="yr"/>
      <phase duration="23.5304750569" state="rG"/>
      <phase duration="8.57325801393" state="ry"/>
   </tlLogic>
   <tlLogic id="1271504830" offset="0" programID="0" type="static">
      <phase duration="22.6595131325" state="GGrrr"/>
      <phase duration="6.46893558968" state="yyrrr"/>
      <phase duration="22.6595131325" state="rrGrr"/>
      <phase duration="6.46893558968" state="rryrr"/>
      <phase duration="22.6595131325" state="rrrGG"/>
      <phase duration="6.46893558968" state="rrryy"/>
   </tlLogic>
   <tlLogic id="1271504834" offset="0" programID="0" type="static">
      <phase duration="9.72738277927" state="G"/>
      <phase duration="2.92291625275" state="y"/>
   </tlLogic>
   <tlLogic id="1271504836" offset="0" programID="0" type="static">
      <phase duration="31.5398958801" state="G"/>
      <phase duration="5.63692789166" state="y"/>
   </tlLogic>
   <tlLogic id="1271504838" offset="0" programID="0" type="static">
      <phase duration="15.4619507846" state="GGrrr"/>
      <phase duration="4.0450183411" state="yyrrr"/>
      <phase duration="15.4619507846" state="rrGGr"/>
      <phase duration="4.0450183411" state="rryyr"/>
      <phase duration="15.4619507846" state="rrrrG"/>
      <phase duration="4.0450183411" state="rrrry"/>
   </tlLogic>
   <tlLogic id="1271504841" offset="0" programID="0" type="static">
      <phase duration="24.4648615936" state="G"/>
      <phase duration="5.19429466244" state="y"/>
   </tlLogic>
   <tlLogic id="1271504842" offset="0" programID="0" type="static">
      <phase duration="35.0798125975" state="G"/>
      <phase duration="7.0682274274" state="y"/>
   </tlLogic>
   <tlLogic id="1271504843" offset="0" programID="0" type="static">
      <phase duration="13.5006012781" state="Gr"/>
      <phase duration="4.13136687615" state="yr"/>
      <phase duration="13.5006012781" state="rG"/>
      <phase duration="4.13136687615" state="ry"/>
   </tlLogic>
   <tlLogic id="1271504844" offset="0" programID="0" type="static">
      <phase duration="18.5671061829" state="G"/>
      <phase duration="7.61167948819" state="y"/>
   </tlLogic>
   <tlLogic id="1271504849" offset="0" programID="0" type="static">
      <phase duration="12.4778946982" state="GGrrr"/>
      <phase duration="4.67732860648" state="yyrrr"/>
      <phase duration="12.4778946982" state="rrGrr"/>
      <phase duration="4.67732860648" state="rryrr"/>
      <phase duration="12.4778946982" state="rrrGG"/>
      <phase duration="4.67732860648" state="rrryy"/>
   </tlLogic>
   <tlLogic id="1271504851" offset="0" programID="0" type="static">
      <phase duration="12.8338078268" state="G"/>
      <phase duration="6.33966993304" state="y"/>
   </tlLogic>
   <tlLogic id="1271504858" offset="0" programID="0" type="static">
      <phase duration="34.8489437416" state="G"/>
      <phase duration="5.25639704113" state="y"/>
   </tlLogic>
   <tlLogic id="1271504861" offset="0" programID="0" type="static">
      <phase duration="23.0523180032" state="G"/>
      <phase duration="7.75821115945" state="y"/>
   </tlLogic>
   <tlLogic id="1271504866" offset="0" programID="0" type="static">
      <phase duration="13.6547442479" state="G"/>
      <phase duration="7.91130831057" state="y"/>
   </tlLogic>
   <tlLogic id="1271504867" offset="0" programID="0" type="static">
      <phase duration="9.98606358472" state="G"/>
      <phase duration="7.63052259439" state="y"/>
   </tlLogic>
   <tlLogic id="1271504868" offset="0" programID="0" type="static">
      <phase duration="15.4888597433" state="Gr"/>
      <phase duration="6.94041200748" state="yr"/>
      <phase duration="15.4888597433" state="rG"/>
      <phase duration="6.94041200748" state="ry"/>
   </tlLogic>
   <tlLogic id="1271504870" offset="0" programID="0" type="static">
      <phase duration="21.9834380319" state="G"/>
      <phase duration="9.36205890257" state="y"/>
   </tlLogic>
   <tlLogic id="1271504871" offset="0" programID="0" type="static">
      <phase duration="11.1519499986" state="GGrr"/>
      <phase duration="4.51515976494" state="yyrr"/>
      <phase duration="11.1519499986" state="rrGG"/>
      <phase duration="4.51515976494" state="rryy"/>
   </tlLogic>
   <tlLogic id="1271504873" offset="0" programID="0" type="static">
      <phase duration="14.8735950963" state="GGrrr"/>
      <phase duration="7.19732070677" state="yyrrr"/>
      <phase duration="14.8735950963" state="rrGrr"/>
      <phase duration="7.19732070677" state="rryrr"/>
      <phase duration="14.8735950963" state="rrrGG"/>
      <phase duration="7.19732070677" state="rrryy"/>
   </tlLogic>
   <tlLogic id="1271504875" offset="0" programID="0" type="static">
      <phase duration="24.7747459742" state="G"/>
      <phase duration="2.93522049995" state="y"/>
   </tlLogic>
   <tlLogic id="1271504878" offset="0" programID="0" type="static">
      <phase duration="18.9617985552" state="G"/>
      <phase duration="5.62257911483" state="y"/>
   </tlLogic>
   <tlLogic id="1271504881" offset="0" programID="0" type="static">
      <phase duration="30.8069284168" state="GGrrr"/>
      <phase duration="7.70307613654" state="yyrrr"/>
      <phase duration="30.8069284168" state="rrGrr"/>
      <phase duration="7.70307613654" state="rryrr"/>
      <phase duration="30.8069284168" state="rrrGG"/>
      <phase duration="7.70307613654" state="rrryy"/>
   </tlLogic>
   <tlLogic id="1271504883" offset="0" programID="0" type="static">
      <phase duration="17.0813513568" state="GGrrr"/>
      <phase duration="2.8574556665" state="yyrrr"/>
      <phase duration="17.0813513568" state="rrGrr"/>
      <phase duration="2.8574556665" state="rryrr"/>
      <phase duration="17.0813513568" state="rrrGG"/>
      <phase duration="2.8574556665" state="rrryy"/>
   </tlLogic>
   <tlLogic id="1271504887" offset="0" programID="0" type="static">
      <phase duration="8.65739019265" state="G"/>
      <phase duration="6.32157118689" state="y"/>
   </tlLogic>
   <tlLogic id="1271504898" offset="0" programID="0" type="static">
      <phase duration="16.6810341273" state="Gr"/>
      <phase duration="3.61567570691" state="yr"/>
      <phase duration="16.6810341273" state="rG"/>
      <phase duration="3.61567570691" state="ry"/>
   </tlLogic>
   <tlLogic id="1271504899" offset="0" programID="0" type="static">
      <phase duration="9.33841556498" state="G"/>
      <phase duration="4.79726550425" state="y"/>
   </tlLogic>
   <tlLogic id="1271504901" offset="0" programID="0" type="static">
      <phase duration="21.837719028" state="GGrrr"/>
      <phase duration="2.95797219652" state="yyrrr"/>
      <phase duration="21.837719028" state="rrGrr"/>
      <phase duration="2.95797219652" state="rryrr"/>
      <phase duration="21.837719028" state="rrrGG"/>
      <phase duration="2.95797219652" state="rrryy"/>
   </tlLogic>
   <tlLogic id="1271504902" offset="0" programID="0" type="static">
      <phase duration="24.7848525593" state="Gr"/>
      <phase duration="5.81022763113" state="yr"/>
      <phase duration="24.7848525593" state="rG"/>
      <phase duration="5.81022763113" state="ry"/>
   </tlLogic>
   <tlLogic id="1271504904" offset="0" programID="0" type="static">
      <phase duration="25.6886209067" state="Grr"/>
      <phase duration="5.37827556735" state="yrr"/>
      <phase duration="25.6886209067" state="rGG"/>
      <phase duration="5.37827556735" state="ryy"/>
   </tlLogic>
   <tlLogic id="1271504905" offset="0" programID="0" type="static">
      <phase duration="8.20516472171" state="G"/>
      <phase duration="8.47924087205" state="y"/>
   </tlLogic>
   <tlLogic id="1271504907" offset="0" programID="0" type="static">
      <phase duration="15.3879088015" state="G"/>
      <phase duration="3.18797053375" state="y"/>
   </tlLogic>
   <tlLogic id="1271504911" offset="0" programID="0" type="static">
      <phase duration="25.432501005" state="G"/>
      <phase duration="5.83180424942" state="y"/>
   </tlLogic>
   <tlLogic id="1271504914" offset="0" programID="0" type="static">
      <phase duration="31.146968156" state="G"/>
      <phase duration="8.33450211796" state="y"/>
   </tlLogic>
   <tlLogic id="1299369677" offset="0" programID="0" type="static">
      <phase duration="23.1304206142" state="G"/>
      <phase duration="5.74200806611" state="y"/>
   </tlLogic>
   <tlLogic id="1299369686" offset="0" programID="0" type="static">
      <phase duration="7.84377266235" state="G"/>
      <phase duration="5.67611761312" state="y"/>
   </tlLogic>
   <tlLogic id="1299369689" offset="0" programID="0" type="static">
      <phase duration="27.2381581961" state="GGrrr"/>
      <phase duration="6.1447868514" state="yyrrr"/>
      <phase duration="27.2381581961" state="rrGrr"/>
      <phase duration="6.1447868514" state="rryrr"/>
      <phase duration="27.2381581961" state="rrrGG"/>
      <phase duration="6.1447868514" state="rrryy"/>
   </tlLogic>
   <tlLogic id="1299369694" offset="0" programID="0" type="static">
      <phase duration="29.7629313125" state="G"/>
      <phase duration="7.26420765049" state="y"/>
   </tlLogic>
   <tlLogic id="1299369699" offset="0" programID="0" type="static">
      <phase duration="15.5234755701" state="G"/>
      <phase duration="6.5099553512" state="y"/>
   </tlLogic>
   <tlLogic id="1312440659" offset="0" programID="0" type="static">
      <phase duration="12.7060921274" state="GGrrr"/>
      <phase duration="9.90597610259" state="yyrrr"/>
      <phase duration="12.7060921274" state="rrGrr"/>
      <phase duration="9.90597610259" state="rryrr"/>
      <phase duration="12.7060921274" state="rrrGG"/>
      <phase duration="9.90597610259" state="rrryy"/>
   </tlLogic>
   <tlLogic id="1360932319" offset="0" programID="0" type="static"/>
   <tlLogic id="1366801194" offset="0" programID="0" type="static"/>
   <tlLogic id="1366801204" offset="0" programID="0" type="static">
      <phase duration="12.7602399251" state="G"/>
      <phase duration="5.95575200221" state="y"/>
   </tlLogic>
   <tlLogic id="1366801217" offset="0" programID="0" type="static">
      <phase duration="11.8297316896" state="G"/>
      <phase duration="8.63817634956" state="y"/>
   </tlLogic>
   <tlLogic id="1366801267" offset="0" programID="0" type="static">
      <phase duration="34.3431714394" state="Grr"/>
      <phase duration="6.31029904174" state="yrr"/>
      <phase duration="34.3431714394" state="rGr"/>
      <phase duration="6.31029904174" state="ryr"/>
      <phase duration="34.3431714394" state="rrG"/>
      <phase duration="6.31029904174" state="rry"/>
   </tlLogic>
   <tlLogic id="1492679675" offset="0" programID="0" type="static">
      <phase duration="29.9247113803" state="Gr"/>
      <phase duration="5.4669912031" state="yr"/>
      <phase duration="29.9247113803" state="rG"/>
      <phase duration="5.4669912031" state="ry"/>
   </tlLogic>
   <tlLogic id="1492679678" offset="0" programID="0" type="static">
      <phase duration="29.2176008882" state="Gr"/>
      <phase duration="8.78466947497" state="yr"/>
      <phase duration="29.2176008882" state="rG"/>
      <phase duration="8.78466947497" state="ry"/>
   </tlLogic>
   <tlLogic id="1492679687" offset="0" programID="0" type="static">
      <phase duration="31.7557789217" state="Gr"/>
      <phase duration="5.51509214582" state="yr"/>
      <phase duration="31.7557789217" state="rG"/>
      <phase duration="5.51509214582" state="ry"/>
   </tlLogic>
   <tlLogic id="1492679726" offset="0" programID="0" type="static">
      <phase duration="8.85910170062" state="G"/>
      <phase duration="5.87604419301" state="y"/>
   </tlLogic>
   <tlLogic id="1492679729" offset="0" programID="0" type="static">
      <phase duration="17.9972291504" state="G"/>
      <phase duration="8.2704553754" state="y"/>
   </tlLogic>
   <tlLogic id="1492679731" offset="0" programID="0" type="static">
      <phase duration="4.51335688355" state="Gr"/>
      <phase duration="5.91076865538" state="yr"/>
      <phase duration="4.51335688355" state="rG"/>
      <phase duration="5.91076865538" state="ry"/>
   </tlLogic>
   <tlLogic id="1492679733" offset="0" programID="0" type="static">
      <phase duration="32.7782648687" state="Gr"/>
      <phase duration="3.16765033884" state="yr"/>
      <phase duration="32.7782648687" state="rG"/>
      <phase duration="3.16765033884" state="ry"/>
   </tlLogic>
   <tlLogic id="1492679741" offset="0" programID="0" type="static">
      <phase duration="25.2569385173" state="G"/>
      <phase duration="7.6275770351" state="y"/>
   </tlLogic>
   <tlLogic id="1492679756" offset="0" programID="0" type="static">
      <phase duration="13.1422209605" state="G"/>
      <phase duration="8.27110259221" state="y"/>
   </tlLogic>
   <tlLogic id="1492729097" offset="0" programID="0" type="static">
      <phase duration="23.9977724373" state="Gr"/>
      <phase duration="3.82386952412" state="yr"/>
      <phase duration="23.9977724373" state="rG"/>
      <phase duration="3.82386952412" state="ry"/>
   </tlLogic>
   <tlLogic id="1492729111" offset="0" programID="0" type="static">
      <phase duration="29.040764834" state="G"/>
      <phase duration="6.47857438974" state="y"/>
   </tlLogic>
   <tlLogic id="1492802032" offset="0" programID="0" type="static">
      <phase duration="15.7502184965" state="G"/>
      <phase duration="3.86580311183" state="y"/>
   </tlLogic>
   <tlLogic id="1492802033" offset="0" programID="0" type="static">
      <phase duration="29.5479924315" state="GGrrr"/>
      <phase duration="7.55182887328" state="yyrrr"/>
      <phase duration="29.5479924315" state="rrGrr"/>
      <phase duration="7.55182887328" state="rryrr"/>
      <phase duration="29.5479924315" state="rrrGG"/>
      <phase duration="7.55182887328" state="rrryy"/>
   </tlLogic>
   <tlLogic id="1492802034" offset="0" programID="0" type="static">
      <phase duration="26.4197555886" state="G"/>