<?xml version="1.0" ?>
<tlLogics>
   <tlLogic id="1000099503" offset="0" programID="0" type="static">
      <phase duration="17.6060994237" state="GGGrrrrrrrr"/>
      <phase duration="2.47263131979" state="yyyrrrrrrrr"/>
      <phase duration="17.6060994237" state="rrrGGGrrrrr"/>
      <phase duration="2.47263131979" state="rrryyyrrrrr"/>
      <phase duration="17.6060994237" state="rrrrrrGGGGG"/>
      <phase duration="2.47263131979" state="rrrrrryyyyy"/>
   </tlLogic>
   <tlLogic id="1000099544" offset="0" programID="0" type="static">
      <phase duration="11.5708770477" state="GGrrr"/>
      <phase duration="3.40201291245" state="yyrrr"/>
      <phase duration="11.5708770477" state="rrGGr"/>
      <phase duration="3.40201291245" state="rryyr"/>
      <phase duration="11.5708770477" state="rrrrG"/>
      <phase duration="3.40201291245" state="rrrry"/>
   </tlLogic>
   <tlLogic id="1000099551" offset="0" programID="0" type="static">
      <phase duration="18.1035497066" state="G"/>
      <phase duration="3.4666248505" state="y"/>
   </tlLogic>
   <tlLogic id="1000099576" offset="0" programID="0" type="static">
      <phase duration="4.18101065256" state="Grrrr"/>
      <phase duration="5.28587201043" state="yrrrr"/>
      <phase duration="4.18101065256" state="rGGrr"/>
      <phase duration="5.28587201043" state="ryyrr"/>
      <phase duration="4.18101065256" state="rrrGG"/>
      <phase duration="5.28587201043" state="rrryy"/>
   </tlLogic>
   <tlLogic id="1000099651" offset="0" programID="0" type="static">
      <phase duration="28.1415158304" state="GGrrrr"/>
      <phase duration="2.12217316936" state="yyrrrr"/>
      <phase duration="28.1415158304" state="rrGGrr"/>
      <phase duration="2.12217316936" state="rryyrr"/>
      <phase duration="28.1415158304" state="rrrrGG"/>
      <phase duration="2.12217316936" state="rrrryy"/>
   </tlLogic>
   <tlLogic id="1000099724" offset="0" programID="0" type="static">
      <phase duration="11.0509173787" state="Grrr"/>
      <phase duration="8.08049121689" state="yrrr"/>
      <phase duration="11.0509173787" state="rGGG"/>
      <phase duration="8.08049121689" state="ryyy"/>
   </tlLogic>
   <tlLogic id="1000099788" offset="0" programID="0" type="static">
      <phase duration="29.3368389597" state="GGrr"/>
      <phase duration="5.78622573071" state="yyrr"/>
      <phase duration="29.3368389597" state="rrGG"/>
      <phase duration="5.78622573071" state="rryy"/>
   </tlLogic>
   <tlLogic id="1012321573" offset="0" programID="0" type="static">
      <phase duration="21.3269503258" state="Gr"/>
      <phase duration="9.65164296775" state="yr"/>
      <phase duration="21.3269503258" state="rG"/>
      <phase duration="9.65164296775" state="ry"/>
   </tlLogic>
   <tlLogic id="1037290808" offset="0" programID="0" type="static">
      <phase duration="11.1315664085" state="GGGrrrrrr"/>
      <phase duration="8.16587344877" state="yyyrrrrrr"/>
      <phase duration="11.1315664085" state="rrrGGGrrr"/>
      <phase duration="8.16587344877" state="rrryyyrrr"/>
      <phase duration="11.1315664085" state="rrrrrrGGG"/>
      <phase duration="8.16587344877" state="rrrrrryyy"/>
   </tlLogic>
   <tlLogic id="1037290822" offset="0" programID="0" type="static">
      <phase duration="15.1082155347" state="GGrr"/>
      <phase duration="9.63260997681" state="yyrr"/>
      <phase duration="15.1082155347" state="rrGG"/>
      <phase duration="9.63260997681" state="rryy"/>
   </tlLogic>
   <tlLogic id="1037290889" offset="0" programID="0" type="static">
      <phase duration="19.4508344915" state="GGrr"/>
      <phase duration="9.20679001" state="yyrr"/>
      <phase duration="19.4508344915" state="rrGG"/>
      <phase duration="9.20679001" state="rryy"/>
   </tlLogic>
   <tlLogic id="1037290944" offset="0" programID="0" type="static">
      <phase duration="24.1147555604" state="G"/>
      <phase duration="5.04884964083" state="y"/>
   </tlLogic>
   <tlLogic id="1040964333" offset="0" programID="0" type="static">
      <phase duration="22.9235257683" state="Gr"/>
      <phase duration="3.5010611788" state="yr"/>
      <phase duration="22.9235257683" state="rG"/>
      <phase duration="3.5010611788" state="ry"/>
   </tlLogic>
   <tlLogic id="1045044750" offset="0" programID="0" type="static">
      <phase duration="32.7107211828" state="Gr"/>
      <phase duration="9.23667783796" state="yr"/>
      <phase duration="32.7107211828" state="rG"/>
      <phase duration="9.23667783796" state="ry"/>
   </tlLogic>
   <tlLogic id="1045044796" offset="0" programID="0" type="static">
      <phase duration="36.7302030199" state="Gr"/>
      <phase duration="7.37715274346" state="yr"/>
      <phase duration="36.7302030199" state="rG"/>
      <phase duration="7.37715274346" state="ry"/>
   </tlLogic>
   <tlLogic id="1045044863" offset="0" programID="0" type="static">
      <phase duration="33.6234425616" state="G"/>
      <phase duration="7.86011185738" state="y"/>
   </tlLogic>
   <tlLogic id="1062771990" offset="0" programID="0" type="static">
      <phase duration="19.8069069439" state="G"/>
      <phase duration="4.54555415872" state="y"/>
   </tlLogic>
   <tlLogic id="1149210260" offset="0" programID="0" type="static">
      <phase duration="25.1916832895" state="Gr"/>
      <phase duration="5.153067522" state="yr"/>
      <phase duration="25.1916832895" state="rG"/>
      <phase duration="5.153067522" state="ry"/>
   </tlLogic>
   <tlLogic id="1150667539" offset="0" programID="0" type="static">
      <phase duration="13.2003330846" state="G"/>
      <phase duration="4.05553148057" state="y"/>
   </tlLogic>
   <tlLogic id="1150667540" offset="0" programID="0" type="static">
      <phase duration="28.6828562198" state="G"/>
      <phase duration="7.0781087783" state="y"/>
   </tlLogic>
   <tlLogic id="1150667555" offset="0" programID="0" type="static">
      <phase duration="27.6300997693" state="Gr"/>
      <phase duration="2.32710911043" state="yr"/>
      <phase duration="27.6300997693" state="rG"/>
      <phase duration="2.32710911043" state="ry"/>
   </tlLogic>
   <tlLogic id="1150667568" offset="0" programID="0" type="static"/>
   <tlLogic id="1150667586" offset="0" programID="0" type="static">
      <phase duration="8.56557064688" state="G"/>
      <phase duration="6.42378141548" state="y"/>
   </tlLogic>
   <tlLogic id="1150667608" offset="0" programID="0" type="static">
      <phase duration="31.5682056825" state="Gr"/>
      <phase duration="4.23332846418" state="yr"/>
      <phase duration="31.5682056825" state="rG"/>
      <phase duration="4.23332846418" state="ry"/>
   </tlLogic>
   <tlLogic id="1150667618" offset="0" programID="0" type="static">
      <phase duration="33.1175426516" state="G"/>
      <phase duration="9.01463185369" state="y"/>
   </tlLogic>
   <tlLogic id="1156723779" offset="0" programID="0" type="static">
      <phase duration="28.0701301507" state="GGrrr"/>
      <phase duration="5.42940027612" state="yyrrr"/>
      <phase duration="28.0701301507" state="rrGrr"/>
      <phase duration="5.42940027612" state="rryrr"/>
      <phase duration="28.0701301507" state="rrrGG"/>
      <phase duration="5.42940027612" state="rrryy"/>
   </tlLogic>
   <tlLogic id="1200892937" offset="0" programID="0" type="static">
      <phase duration="19.5997060134" state="G"/>
      <phase duration="6.85691954155" state="y"/>
   </tlLogic>
   <tlLogic id="1200892960" offset="0" programID="0" type="static">
      <phase duration="38.0712481908" state="Gr"/>
      <phase duration="7.83620459855" state="yr"/>
      <phase duration="38.0712481908" state="rG"/>
      <phase duration="7.83620459855" state="ry"/>
   </tlLogic>
   <tlLogic id="1201745377" offset="0" programID="0" type="static">
      <phase duration="23.3181251194" state="G"/>
      <phase duration="7.64847766678" state="y"/>
   </tlLogic>
   <tlLogic id="1201745399" offset="0" programID="0" type="static"/>
   <tlLogic id="1211136497" offset="0" programID="0" type="static">
      <phase duration="20.2010537257" state="GGrr"/>
      <phase duration="6.44135467995" state="yyrr"/>
      <phase duration="20.2010537257" state="rrGG"/>
      <phase duration="6.44135467995" state="rryy"/>
   </tlLogic>
   <tlLogic id="1220020545" offset="0" programID="0" type="static">
      <phase duration="18.445267284" state="GGrrr"/>
      <phase duration="3.6903276515" state="yyrrr"/>
      <phase duration="18.445267284" state="rrGrr"/>
      <phase duration="3.6903276515" state="rryrr"/>
      <phase duration="18.445267284" state="rrrGG"/>
      <phase duration="3.6903276515" state="rrryy"/>
   </tlLogic>
   <tlLogic id="1220020630" offset="0" programID="0" type="static">
      <phase duration="36.6458247309" state="Gr"/>
      <phase duration="1.3687657136" state="yr"/>
      <phase duration="36.6458247309" state="rG"/>
      <phase duration="1.3687657136" state="ry"/>
   </tlLogic>
   <tlLogic id="1220020656" offset="0" programID="0" type="static">
      <phase duration="30.036960844" state="GGrr"/>
      <phase duration="3.78555116764" state="yyrr"/>
      <phase duration="30.036960844" state="rrGG"/>
      <phase duration="3.78555116764" state="rryy"/>
   </tlLogic>
   <tlLogic id="1220020679" offset="0" programID="0" type="static">
      <phase duration="24.4485854172" state="GGrr"/>
      <phase duration="7.14281351141" state="yyrr"/>
      <phase duration="24.4485854172" state="rrGG"/>
      <phase duration="7.14281351141" state="rryy"/>
   </tlLogic>
   <tlLogic id="1229522509" offset="0" programID="0" type="static">
      <phase duration="24.420611836" state="G"/>
      <phase duration="5.60851774361" state="y"/>
   </tlLogic>
   <tlLogic id="1229522554" offset="0" programID="0" type="static">
      <phase duration="26.6589471721" state="G"/>
      <phase duration="7.65028431947" state="y"/>
   </tlLogic>
   <tlLogic id="1252265070" offset="0" programID="0" type="static"/>
   <tlLogic id="1252285085" offset="0" programID="0" type="static">
      <phase duration="25.2692292296" state="Gr"/>
      <phase duration="7.77932357964" state="yr"/>
      <phase duration="25.2692292296" state="rG"/>
      <phase duration="7.77932357964" state="ry"/>
   </tlLogic>
   <tlLogic id="1252285087" offset="0" programID="0" type="static"/>
   <tlLogic id="1252285092" offset="0" programID="0" type="static">
      <phase duration="10.2407146354" state="G"/>
      <phase duration="3.98560774089" state="y"/>
   </tlLogic>
   <tlLogic id="1252285093" offset="0" programID="0" type="static">
      <phase duration="19.0178051195" state="Gr"/>
      <phase duration="7.58110288518" state="yr"/>
      <phase duration="19.0178051195" state="rG"/>
      <phase duration="7.58110288518" state="ry"/>
   </tlLogic>
   <tlLogic id="1252285107" offset="0" programID="0" type="static">
      <phase duration="27.6601152509" state="G"/>
      <phase duration="2.00093842206" state="y"/>
   </tlLogic>
   <tlLogic id="1252285140" offset="0" programID="0" type="static">
      <phase duration="17.5151496128" state="Gr"/>
      <phase duration="7.18305927539" state="yr"/>
      <phase duration="17.5151496128" state="rG"/>
      <phase duration="7.18305927539" state="ry"/>
   </tlLogic>
   <tlLogic id="1264255381" offset="0" programID="0" type="static">
      <phase duration="33.7049844882" state="GGGrrrrrr"/>
      <phase duration="2.89318696384" state="yyyrrrrrr"/>
      <phase duration="33.7049844882" state="rrrGGGrrr"/>
      <phase duration="2.89318696384" state="rrryyyrrr"/>
      <phase duration="33.7049844882" state="rrrrrrGGG"/>
      <phase duration="2.89318696384" state="rrrrrryyy"/>
   </tlLogic>
   <tlLogic id="1271504738" offset="0" programID="0" type="static">
      <phase duration="16.3506845463" state="Gr"/>
      <phase duration="6.78255192992" state="yr"/>
      <phase duration="16.3506845463" state="rG"/>
      <phase duration="6.78255192992" state="ry"/>
   </tlLogic>
   <tlLogic id="1271504743" offset="0" programID="0" type="static">
      <phase duration="12.2596830167" state="G"/>
      <phase duration="6.12175801576" state="y"/>
   </tlLogic>
   <tlLogic id="1271504747" offset="0" programID="0" type="static">
      <phase duration="32.3886797953" state="Gr"/>
      <phase duration="4.91744081459" state="yr"/>
      <phase duration="32.3886797953" state="rG"/>
      <phase duration="4.91744081459" state="ry"/>
   </tlLogic>
   <tlLogic id="1271504755" offset="0" programID="0" type="static">
      <phase duration="10.9692162454" state="GGrrr"/>
      <phase duration="2.59662074887" state="yyrrr"/>
      <phase duration="10.9692162454" state="rrGrr"/>
      <phase duration="2.59662074887" state="rryrr"/>
      <phase duration="10.9692162454" state="rrrGG"/>
      <phase duration="2.59662074887" state="rrryy"/>
   </tlLogic>
   <tlLogic id="1271504756" offset="0" programID="0" type="static">
      <phase duration="18.1703036357" state="Gr"/>
      <phase duration="3.78487472141" state="yr"/>
      <phase duration="18.1703036357" state="rG"/>
      <phase duration="3.78487472141" state="ry"/>
   </tlLogic>
   <tlLogic id="1271504758" offset="0" programID="0" type="static">
      <phase duration="13.9746780218" state="G"/>
      <phase duration="7.14561633085" state="y"/>
   </tlLogic>
   <tlLogic id="1271504764" offset="0" programID="0" type="static">
      <phase duration="33.342390083" state="G"/>
      <phase duration="4.7081923876" state="y"/>
   </tlLogic>
   <tlLogic id="1271504767" offset="0" programID="0" type="static">
      <phase duration="33.6251042335" state="G"/>
      <phase duration="6.46761409412" state="y"/>
   </tlLogic>
   <tlLogic id="1271504774" offset="0" programID="0" type="static">
      <phase duration="15.5867977723" state="G"/>
      <phase duration="6.40045760018" state="y"/>
   </tlLogic>
   <tlLogic id="1271504778" offset="0" programID="0" type="static">
      <phase duration="17.2281851037" state="G"/>
      <phase duration="4.50748406202" state="y"/>
   </tlLogic>
   <tlLogic id="1271504781" offset="0" programID="0" type="static">
      <phase duration="37.8060684386" state="GGrrr"/>
      <phase duration="7.10704652319" state="yyrrr"/>
      <phase duration="37.8060684386" state="rrGrr"/>
      <phase duration="7.10704652319" state="rryrr"/>
      <phase duration="37.8060684386" state="rrrGG"/>
      <phase duration="7.10704652319" state="rrryy"/>
   </tlLogic>
   <tlLogic id="1271504783" offset="0" programID="0" type="static">
      <phase duration="6.2048095463" state="Gr"/>
      <phase duration="3.13063836265" state="yr"/>
      <phase duration="6.2048095463" state="rG"/>
      <phase duration="3.13063836265" state="ry"/>
   </tlLogic>
   <tlLogic id="1271504788" offset="0" programID="0" type="static">
      <phase duration="19.7612862987" state="GGrrr"/>
      <phase duration="5.01559405644" state="yyrrr"/>
      <phase duration="19.7612862987" state="rrGGG"/>
      <phase duration="5.01559405644" state="rryyy"/>
   </tlLogic>
   <tlLogic id="1271504803" offset="0" programID="0" type="static">
      <phase duration="26.073526886" state="G"/>
      <phase duration="9.45769178837" state="y"/>
   </tlLogic>
   <tlLogic id="1271504812" offset="0" programID="0" type="static">
      <phase duration="9.28906813954" state="G"/>
      <phase duration="7.05643068603" state="y"/>
   </tlLogic>
   <tlLogic id="1271504813" offset="0" programID="0" type="static">
      <phase duration="19.7474283929" state="G"/>
      <phase duration="2.2845440311" state="y"/>
   </tlLogic>
   <tlLogic id="1271504815" offset="0" programID="0" type="static">
      <phase duration="7.82875244696" state="Gr"/>
      <phase duration="8.4210343453" state="yr"/>
      <phase duration="7.82875244696" state="rG"/>
      <phase duration="8.4210343453" state="ry"/>
   </tlLogic>
   <tlLogic id="1271504824" offset="0" programID="0" type="static">
      <phase duration="21.2106675456" state="G"/>
      <phase duration="8.50585322879" state="y"/>
   </tlLogic>
   <tlLogic id="1271504827" offset="0" programID="0" type="static">
      <phase duration="29.4716070779" state="Gr"/>
      <phase duration="9.1944406265" state="yr"/>
      <phase duration="29.4716070779" state="rG"/>
      <phase duration="9.1944406265" state="ry"/>
   </tlLogic>
   <tlLogic id="1271504834" offset="0" programID="0" type="static">
      <phase duration="9.23510469758" state="G"/>
      <phase duration="3.33423086169" state="y"/>
   </tlLogic>
   <tlLogic id="1271504836" offset="0" programID="0" type="static">
      <phase duration="26.1482553717" state="G"/>
      <phase duration="4.9237536164" state="y"/>
   </tlLogic>
   <tlLogic id="1271504838" offset="0" programID="0" type="static">
      <phase duration="19.4859211082" state="GGrrr"/>
      <phase duration="3.7694820407" state="yyrrr"/>
      <phase duration="19.4859211082" state="rrGGr"/>
      <phase duration="3.7694820407" state="rryyr"/>
      <phase duration="19.4859211082" state="rrrrG"/>
      <phase duration="3.7694820407" state="rrrry"/>
   </tlLogic>
   <tlLogic id="1271504841" offset="0" programID="0" type="static">
      <phase duration="18.788888244" state="G"/>
      <phase duration="6.65844648865" state="y"/>
   </tlLogic>
   <tlLogic id="1271504844" offset="0" programID="0" type="static">
      <phase duration="3.11114099946" state="G"/>
      <phase duration="5.32851587424" state="y"/>
   </tlLogic>
   <tlLogic id="1271504849" offset="0" programID="0" type="static">
      <phase duration="12.8133737565" state="GGrrr"/>
      <phase duration="4.7757251449" state="yyrrr"/>
      <phase duration="12.8133737565" state="rrGrr"/>
      <phase duration="4.7757251449" state="rryrr"/>
      <phase duration="12.8133737565" state="rrrGG"/>
      <phase duration="4.7757251449" state="rrryy"/>
   </tlLogic>
   <tlLogic id="1271504855" offset="0" programID="0" type="static">
      <phase duration="24.8895658896" state="Gr"/>
      <phase duration="5.81168228934" state="yr"/>
      <phase duration="24.8895658896" state="rG"/>
      <phase duration="5.81168228934" state="ry"/>
   </tlLogic>
   <tlLogic id="1271504861" offset="0" programID="0" type="static">
      <phase duration="13.7218763053" state="G"/>
      <phase duration="7.82472194862" state="y"/>
   </tlLogic>
   <tlLogic id="1271504867" offset="0" programID="0" type="static">
      <phase duration="6.09379376677" state="G"/>
      <phase duration="8.60816745547" state="y"/>
   </tlLogic>
   <tlLogic id="1271504868" offset="0" programID="0" type="static">
      <phase duration="22.0628489437" state="Gr"/>
      <phase duration="4.64024671463" state="yr"/>
      <phase duration="22.0628489437" state="rG"/>
      <phase duration="4.64024671463" state="ry"/>
   </tlLogic>
   <tlLogic id="1271504870" offset="0" programID="0" type="static">
      <phase duration="28.2467951281" state="G"/>
      <phase duration="7.76883134449" state="y"/>
   </tlLogic>
   <tlLogic id="1271504871" offset="0" programID="0" type="static">
      <phase duration="2.35797512255" state="GGrr"/>
      <phase duration="3.75112688509" state="yyrr"/>
      <phase duration="2.35797512255" state="rrGG"/>
      <phase duration="3.75112688509" state="rryy"/>
   </tlLogic>
   <tlLogic id="1271504873" offset="0" programID="0" type="static">
      <phase duration="14.297312526" state="GGrrr"/>
      <phase duration="6.80701948434" state="yyrrr"/>
      <phase duration="14.297312526" state="rrGrr"/>
      <phase duration="6.80701948434" state="rryrr"/>
      <phase duration="14.297312526" state="rrrGG"/>
      <phase duration="6.80701948434" state="rrryy"/>
   </tlLogic>
   <tlLogic id="1271504875" offset="0" programID="0" type="static">
      <phase duration="29.3459717325" state="G"/>
      <phase duration="2.99363040906" state="y"/>
   </tlLogic>
   <tlLogic id="1271504878" offset="0" programID="0" type="static">
      <phase duration="10.703646503" state="G"/>
      <phase duration="5.33918579589" state="y"/>
   </tlLogic>
   <tlLogic id="1271504881" offset="0" programID="0" type="static">
      <phase duration="34.0519999562" state="GGrrr"/>
      <phase duration="9.13497458873" state="yyrrr"/>
      <phase duration="34.0519999562" state="rrGrr"/>
      <phase duration="9.13497458873" state="rryrr"/>
      <phase duration="34.0519999562" state="rrrGG"/>
      <phase duration="9.13497458873" state="rrryy"/>
   </tlLogic>
   <tlLogic id="1271504887" offset="0" programID="0" type="static">
      <phase duration="8.17252501392" state="G"/>
      <phase duration="7.33584515313" state="y"/>
   </tlLogic>
   <tlLogic id="1271504888" offset="0" programID="0" type="static">
      <phase duration="11.6211966257" state="G"/>
      <phase duration="2.7059756275" state="y"/>
   </tlLogic>
   <tlLogic id="1271504889" offset="0" programID="0" type="static">
      <phase duration="14.9259473018" state="Gr"/>
      <phase duration="8.65491128832" state="yr"/>
      <phase duration="14.9259473018" state="rG"/>
      <phase duration="8.65491128832" state="ry"/>
   </tlLogic>
   <tlLogic id="1271504898" offset="0" programID="0" type="static">
      <phase duration="18.3732374439" state="Gr"/>
      <phase duration="3.56299239101" state="yr"/>
      <phase duration="18.3732374439" state="rG"/>
      <phase duration="3.56299239101" state="ry"/>
   </tlLogic>
   <tlLogic id="1271504899" offset="0" programID="0" type="static">
      <phase duration="8.17440478116" state="G"/>
      <phase duration="3.38174451991" state="y"/>
   </tlLogic>
   <tlLogic id="1271504901" offset="0" programID="0" type="static">
      <phase duration="27.1087960258" state="GGrrr"/>
      <phase duration="2.3617823407" state="yyrrr"/>
      <phase duration="27.1087960258" state="rrGrr"/>
      <phase duration="2.3617823407" state="rryrr"/>
      <phase duration="27.1087960258" state="rrrGG"/>
      <phase duration="2.3617823407" state="rrryy"/>
   </tlLogic>
   <tlLogic id="1271504902" offset="0" programID="0" type="static">
      <phase duration="37.6777809802" state="Gr"/>
      <phase duration="3.55902748838" state="yr"/>
      <phase duration="37.6777809802" state="rG"/>
      <phase duration="3.55902748838" state="ry"/>
   </tlLogic>
   <tlLogic id="1271504904" offset="0" programID="0" type="static">
      <phase duration="24.3895395646" state="Grr"/>
      <phase duration="5.43184016204" state="yrr"/>
      <phase duration="24.3895395646" state="rGG"/>
      <phase duration="5.43184016204" state="ryy"/>
   </tlLogic>
   <tlLogic id="1271504905" offset="0" programID="0" type="static">
      <phase duration="5.19111374922" state="G"/>
      <phase duration="9.81115043257" state="y"/>
   </tlLogic>
   <tlLogic id="1271504911" offset="0" programID="0" type="static">
      <phase duration="28.2778550582" state="G"/>
      <phase duration="6.15365597026" state="y"/>
   </tlLogic>
   <tlLogic id="1271504914" offset="0" programID="0" type="static">
      <phase duration="35.7930791371" state="G"/>
      <phase duration="6.58086568295" state="y"/>
   </tlLogic>
   <tlLogic id="1299369677" offset="0" programID="0" type="static">
      <phase duration="31.9466169724" state="G"/>
      <phase duration="3.12521753431" state="y"/>
   </tlLogic>
   <tlLogic id="1299369684" offset="0" programID="0" type="static">
      <phase duration="19.711603715" state="G"/>
      <phase duration="3.44989371104" state="y"/>
   </tlLogic>
   <tlLogic id="1299369686" offset="0" programID="0" type="static">
      <phase duration="8.78440562564" state="G"/>
      <phase duration="6.46110548978" state="y"/>
   </tlLogic>
   <tlLogic id="1299369689" offset="0" programID="0" type="static">
      <phase duration="31.4115382808" state="GGrrr"/>
      <phase duration="9.7624089868" state="yyrrr"/>
      <phase duration="31.4115382808" state="rrGrr"/>
      <phase duration="9.7624089868" state="rryrr"/>
      <phase duration="31.4115382808" state="rrrGG"/>
      <phase duration="9.7624089868" state="rrryy"/>
   </tlLogic>
   <tlLogic id="1299369691" offset="0" programID="0" type="static">
      <phase duration="13.7315592504" state="Gr"/>
      <phase duration="4.01973947772" state="yr"/>
      <phase duration="13.7315592504" state="rG"/>
      <phase duration="4.01973947772" state="ry"/>
   </tlLogic>
   <tlLogic id="1299369694" offset="0" programID="0" type="static">
      <phase duration="19.1342398164" state="G"/>
      <phase duration="7.07177710452" state="y"/>
   </tlLogic>
   <tlLogic id="1299369699" offset="0" programID="0" type="static">
      <phase duration="16.5982522551" state="G"/>
      <phase duration="6.59125781515" state="y"/>
   </tlLogic>
   <tlLogic id="1312440659" offset="0" programID="0" type="static">
      <phase duration="10.981300242" state="GGrrr"/>
      <phase duration="8.3528826052" state="yyrrr"/>
      <phase duration="10.981300242" state="rrGrr"/>
      <phase duration="8.3528826052" state="rryrr"/>
      <phase duration="10.981300242" state="rrrGG"/>
      <phase duration="8.3528826052" state="rrryy"/>
   </tlLogic>
   <tlLogic id="1312812204" offset="0" programID="0" type="static">
      <phase duration="15.9745421443" state="G"/>
      <phase duration="7.19417407548" state="y"/>
   </tlLogic>
   <tlLogic id="1353566368" offset="0" programID="0" type="static">
      <phase duration="29.6256406929" state="G"/>
      <phase duration="8.02945988044" state="y"/>
   </tlLogic>
   <tlLogic id="1353566371" offset="0" programID="0" type="static">
      <phase duration="17.0161133179" state="G"/>
      <phase duration="8.56902861431" state="y"/>
   </tlLogic>
   <tlLogic id="1360932319" offset="0" programID="0" type="static"/>
   <tlLogic id="1366801174" offset="0" programID="0" type="static">
      <phase duration="24.1241606333" state="G"/>
      <phase duration="2.82050923557" state="y"/>
   </tlLogic>
   <tlLogic id="1366801200" offset="0" programID="0" type="static">
      <phase duration="18.8225663919" state="Gr"/>
      <phase duration="5.49215026652" state="yr"/>
      <phase duration="18.8225663919" state="rG"/>
      <phase duration="5.49215026652" state="ry"/>
   </tlLogic>
   <tlLogic id="1366801204" offset="0" programID="0" type="static">
      <phase duration="20.9548661225" state="G"/>
      <phase duration="8.1571366202" state="y"/>
   </tlLogic>
   <tlLogic id="1366801217" offset="0" programID="0" type="static">
      <phase duration="14.4067535307" state="G"/>
      <phase duration="9.87242353279" state="y"/>
   </tlLogic>
   <tlLogic id="1366801221" offset="0" programID="0" type="static">
      <phase duration="18.3204559215" state="Gr"/>
      <phase duration="7.54850144771" state="yr"/>
      <phase duration="18.3204559215" state="rG"/>
      <phase duration="7.54850144771" state="ry"/>
   </tlLogic>
   <tlLogic id="1366801262" offset="0" programID="0" type="static">
      <phase duration="29.0968018952" state="G"/>
      <phase duration="6.75254140518" state="y"/>
   </tlLogic>
   <tlLogic id="1366801267" offset="0" programID="0" type="static">
      <phase duration="33.8369735299" state="Grr"/>
      <phase duration="6.72036642944" state="yrr"/>
      <phase duration="33.8369735299" state="rGr"/>
      <phase duration="6.72036642944" state="ryr"/>
      <phase duration="33.8369735299" state="rrG"/>
      <phase duration="6.72036642944" state="rry"/>
   </tlLogic>
   <tlLogic id="1492679678" offset="0" programID="0" type="static">
      <phase duration="33.6249730751" state="Gr"/>
      <phase duration="8.83765639357" state="yr"/>
      <phase duration="33.6249730751" state="rG"/>
      <phase duration="8.83765639357" state="ry"/>
   </tlLogic>
   <tlLogic id="1492679687" offset="0" programID="0" type="static">
      <phase duration="21.8341153228" state="Gr"/>
      <phase duration="8.94854113289" state="yr"/>
      <phase duration="21.8341153228" state="rG"/>
      <phase duration="8.94854113289" state="ry"/>
   </tlLogic>
   <tlLogic id="1492679726" offset="0" programID="0" type="static">
      <phase duration="24.6814085037" state="G"/>
      <phase duration="3.36801249517" state="y"/>
   </tlLogic>
   <tlLogic id="1492679729" offset="0" programID="0" type="static">
      <phase duration="19.0142124453" state="G"/>
      <phase duration="5.3049469003" state="y"/>
   </tlLogic>
   <tlLogic id="1492679731" offset="0" programID="0" type="static">
      <phase duration="8.12908074544" state="Gr"/>
      <phase duration="6.68847037511" state="yr"/>
      <phase duration="8.12908074544" state="rG"/>
      <phase duration="6.68847037511" state="ry"/>
   </tlLogic>
   <tlLogic id="1492679749" offset="0" programID="0" type="static">
      <phase duration="26.4931223978" state="GGrrr"/>
      <phase duration="7.890253188" state="yyrrr"/>
      <phase duration="26.4931223978" state="rrGGr"/>
      <phase duration="7.890253188" state="rryyr"/>
      <phase duration="26.4931223978" state="rrrrG"/>
      <phase duration="7.890253188" state="rrrry"/>
   </tlLogic>
   <tlLogic id="1492679753" offset="0" programID="0" type="static">
      <phase duration="21.557908325" state="G"/>
      <phase duration="2.3790011278" state="y"/>
   </tlLogic>
   <tlLogic id="1492679756" offset="0" programID="0" type="static">
      <phase duration="12.3224171972" state="G"/>
      <phase duration="8.4427372881" state="y"/>
   </tlLogic>
   <tlLogic id="1492729097" offset="0" programID="0" type="static">
      <phase duration="29.9301323743" state="Gr"/>
      <phase duration="8.76261086414" state="yr"/>
      <phase duration="29.9301323743" state="rG"/>
      <phase duration="8.76261086414" state="ry"/>
   </tlLogic>
   <tlLogic id="1492729111" offset="0" programID="0" type="static">
      <phase duration="24.7006922584" state="G"/>
      <phase duration="4.27461703312" state="y"/>
   </tlLogic>
   <tlLogic id="1492729114" offset="0" programID="0" type="static">
      <phase duration="26.4454814454" state="Gr"/>
      <phase duration="7.30987930434" state="yr"/>