<?xml version="1.0" ?>
<tlLogics>
   <tlLogic id="1000099503" offset="0" programID="0" type="static">
      <phase duration="22.1593914388" state="GGGrrrrrrrr"/>
      <phase duration="4.44579257971" state="yyyrrrrrrrr"/>
      <phase duration="22.1593914388" state="rrrGGGrrrrr"/>
      <phase duration="4.44579257971" state="rrryyyrrrrr"/>
      <phase duration="22.1593914388" state="rrrrrrGGGGG"/>
      <phase duration="4.44579257971" state="rrrrrryyyyy"/>
   </tlLogic>
   <tlLogic id="1000099551" offset="0" programID="0" type="static">
      <phase duration="26.2328086087" state="G"/>
      <phase duration="4.55451913756" state="y"/>
   </tlLogic>
   <tlLogic id="1000099607" offset="0" programID="0" type="static">
      <phase duration="19.9531696661" state="GGr"/>
      <phase duration="8.3238727366" state="yyr"/>
      <phase duration="19.9531696661" state="rrG"/>
      <phase duration="8.3238727366" state="rry"/>
   </tlLogic>
   <tlLogic id="1000099651" offset="0" programID="0" type="static">
      <phase duration="17.3927031234" state="GGrrrr"/>
      <phase duration="2.92140931435" state="yyrrrr"/>
      <phase duration="17.3927031234" state="rrGGrr"/>
      <phase duration="2.92140931435" state="rryyrr"/>
      <phase duration="17.3927031234" state="rrrrGG"/>
      <phase duration="2.92140931435" state="rrrryy"/>
   </tlLogic>
   <tlLogic id="1000099741" offset="0" programID="0" type="static">
      <phase duration="14.7576188605" state="GGrr"/>
      <phase duration="6.95432242792" state="yyrr"/>
      <phase duration="14.7576188605" state="rrGG"/>
      <phase duration="6.95432242792" state="rryy"/>
   </tlLogic>
   <tlLogic id="1012321573" offset="0" programID="0" type="static">
      <phase duration="16.1539842275" state="Gr"/>
      <phase duration="8.38747367713" state="yr"/>
      <phase duration="16.1539842275" state="rG"/>
      <phase duration="8.38747367713" state="ry"/>
   </tlLogic>
   <tlLogic id="1028832186" offset="0" programID="0" type="static"/>
   <tlLogic id="1037290822" offset="0" programID="0" type="static">
      <phase duration="15.8169169788" state="GGrr"/>
      <phase duration="6.32788318807" state="yyrr"/>
      <phase duration="15.8169169788" state="rrGG"/>
      <phase duration="6.32788318807" state="rryy"/>
   </tlLogic>
   <tlLogic id="1037290889" offset="0" programID="0" type="static">
      <phase duration="23.9829318334" state="GGrr"/>
      <phase duration="8.32567805697" state="yyrr"/>
      <phase duration="23.9829318334" state="rrGG"/>
      <phase duration="8.32567805697" state="rryy"/>
   </tlLogic>
   <tlLogic id="1037290944" offset="0" programID="0" type="static">
      <phase duration="17.7157810242" state="G"/>
      <phase duration="5.76268562726" state="y"/>
   </tlLogic>
   <tlLogic id="1040964333" offset="0" programID="0" type="static">
      <phase duration="25.3782719057" state="Gr"/>
      <phase duration="4.80613654923" state="yr"/>
      <phase duration="25.3782719057" state="rG"/>
      <phase duration="4.80613654923" state="ry"/>
   </tlLogic>
   <tlLogic id="1045044715" offset="0" programID="0" type="static">
      <phase duration="11.505939852" state="Gr"/>
      <phase duration="5.33454175387" state="yr"/>
      <phase duration="11.505939852" state="rG"/>
      <phase duration="5.33454175387" state="ry"/>
   </tlLogic>
   <tlLogic id="1045044750" offset="0" programID="0" type="static">
      <phase duration="28.9629032917" state="Gr"/>
      <phase duration="7.5568898889" state="yr"/>
      <phase duration="28.9629032917" state="rG"/>
      <phase duration="7.5568898889" state="ry"/>
   </tlLogic>
   <tlLogic id="1045044796" offset="0" programID="0" type="static">
      <phase duration="28.8103810945" state="Gr"/>
      <phase duration="4.68778302577" state="yr"/>
      <phase duration="28.8103810945" state="rG"/>
      <phase duration="4.68778302577" state="ry"/>
   </tlLogic>
   <tlLogic id="1045044863" offset="0" programID="0" type="static">
      <phase duration="25.1154041319" state="G"/>
      <phase duration="6.53303155767" state="y"/>
   </tlLogic>
   <tlLogic id="1062771990" offset="0" programID="0" type="static">
      <phase duration="22.3492073831" state="G"/>
      <phase duration="5.80046377742" state="y"/>
   </tlLogic>
   <tlLogic id="1109589987" offset="0" programID="0" type="static">
      <phase duration="35.3281799206" state="GGrr"/>
      <phase duration="6.35692006952" state="yyrr"/>
      <phase duration="35.3281799206" state="rrGG"/>
      <phase duration="6.35692006952" state="rryy"/>
   </tlLogic>
   <tlLogic id="1149210260" offset="0" programID="0" type="static">
      <phase duration="24.6754455006" state="Gr"/>
      <phase duration="5.01928865385" state="yr"/>
      <phase duration="24.6754455006" state="rG"/>
      <phase duration="5.01928865385" state="ry"/>
   </tlLogic>
   <tlLogic id="1150667540" offset="0" programID="0" type="static">
      <phase duration="22.3629076588" state="G"/>
      <phase duration="5.60051272858" state="y"/>
   </tlLogic>
   <tlLogic id="1150667558" offset="0" programID="0" type="static">
      <phase duration="15.779801443" state="Gr"/>
      <phase duration="5.97936465689" state="yr"/>
      <phase duration="15.779801443" state="rG"/>
      <phase duration="5.97936465689" state="ry"/>
   </tlLogic>
   <tlLogic id="1150667560" offset="0" programID="0" type="static">
      <phase duration="25.256824457" state="G"/>
      <phase duration="5.59386387048" state="y"/>
   </tlLogic>
   <tlLogic id="1150667568" offset="0" programID="0" type="static"/>
   <tlLogic id="1150667571" offset="0" programID="0" type="static">
      <phase duration="19.9387370091" state="G"/>
      <phase duration="3.0753425775" state="y"/>
   </tlLogic>
   <tlLogic id="1150667586" offset="0" programID="0" type="static">
      <phase duration="11.6198973189" state="G"/>
      <phase duration="5.32674899497" state="y"/>
   </tlLogic>
   <tlLogic id="1150667608" offset="0" programID="0" type="static">
      <phase duration="30.2877752929" state="Gr"/>
      <phase duration="3.89415896245" state="yr"/>
      <phase duration="30.2877752929" state="rG"/>
      <phase duration="3.89415896245" state="ry"/>
   </tlLogic>
   <tlLogic id="1150667618" offset="0" programID="0" type="static">
      <phase duration="35.0947175093" state="G"/>
      <phase duration="6.0843890073" state="y"/>
   </tlLogic>
   <tlLogic id="1156723779" offset="0" programID="0" type="static">
      <phase duration="35.8257100154" state="GGrrr"/>
      <phase duration="7.51693149283" state="yyrrr"/>
      <phase duration="35.8257100154" state="rrGrr"/>
      <phase duration="7.51693149283" state="rryrr"/>
      <phase duration="35.8257100154" state="rrrGG"/>
      <phase duration="7.51693149283" state="rrryy"/>
   </tlLogic>
   <tlLogic id="1156723839" offset="0" programID="0" type="static">
      <phase duration="20.4947507364" state="Gr"/>
      <phase duration="4.59118131436" state="yr"/>
      <phase duration="20.4947507364" state="rG"/>
      <phase duration="4.59118131436" state="ry"/>
   </tlLogic>
   <tlLogic id="1157698150" offset="0" programID="0" type="static">
      <phase duration="16.6513913311" state="G"/>
      <phase duration="5.04105044652" state="y"/>
   </tlLogic>
   <tlLogic id="1200892937" offset="0" programID="0" type="static">
      <phase duration="19.6315172489" state="G"/>
      <phase duration="6.95232609378" state="y"/>
   </tlLogic>
   <tlLogic id="1201745377" offset="0" programID="0" type="static">
      <phase duration="12.4949710499" state="G"/>
      <phase duration="6.25160818825" state="y"/>
   </tlLogic>
   <tlLogic id="1220020630" offset="0" programID="0" type="static">
      <phase duration="32.446776671" state="Gr"/>
      <phase duration="2.9333419372" state="yr"/>
      <phase duration="32.446776671" state="rG"/>
      <phase duration="2.9333419372" state="ry"/>
   </tlLogic>
   <tlLogic id="1229522462" offset="0" programID="0" type="static">
      <phase duration="9.63238036098" state="G"/>
      <phase duration="5.11881854272" state="y"/>
   </tlLogic>
   <tlLogic id="1229522509" offset="0" programID="0" type="static">
      <phase duration="21.391351867" state="G"/>
      <phase duration="8.50408292412" state="y"/>
   </tlLogic>
   <tlLogic id="1252265070" offset="0" programID="0" type="static"/>
   <tlLogic id="1252285082" offset="0" programID="0" type="static">
      <phase duration="17.1101817603" state="G"/>
      <phase duration="6.8310402814" state="y"/>
   </tlLogic>
   <tlLogic id="1252285085" offset="0" programID="0" type="static">
      <phase duration="20.2732926835" state="Gr"/>
      <phase duration="1.83654217396" state="yr"/>
      <phase duration="20.2732926835" state="rG"/>
      <phase duration="1.83654217396" state="ry"/>
   </tlLogic>
   <tlLogic id="1252285092" offset="0" programID="0" type="static">
      <phase duration="15.9858420087" state="G"/>
      <phase duration="4.91724921201" state="y"/>
   </tlLogic>
   <tlLogic id="1252285093" offset="0" programID="0" type="static">
      <phase duration="22.8173660179" state="Gr"/>
      <phase duration="6.98962744347" state="yr"/>
      <phase duration="22.8173660179" state="rG"/>
      <phase duration="6.98962744347" state="ry"/>
   </tlLogic>
   <tlLogic id="1252285107" offset="0" programID="0" type="static">
      <phase duration="31.7477715698" state="G"/>
      <phase duration="5.20457933118" state="y"/>
   </tlLogic>
   <tlLogic id="1252285133" offset="0" programID="0" type="static">
      <phase duration="12.1829789849" state="Gr"/>
      <phase duration="4.66536983629" state="yr"/>
      <phase duration="12.1829789849" state="rG"/>
      <phase duration="4.66536983629" state="ry"/>
   </tlLogic>
   <tlLogic id="1252285137" offset="0" programID="0" type="static">
      <phase duration="13.0174953324" state="Gr"/>
      <phase duration="4.18688687551" state="yr"/>
      <phase duration="13.0174953324" state="rG"/>
      <phase duration="4.18688687551" state="ry"/>
   </tlLogic>
   <tlLogic id="1258258237" offset="0" programID="0" type="static">
      <phase duration="23.2190603784" state="GGr"/>
      <phase duration="5.05663106144" state="yyr"/>
      <phase duration="23.2190603784" state="rrG"/>
      <phase duration="5.05663106144" state="rry"/>
   </tlLogic>
   <tlLogic id="1271504738" offset="0" programID="0" type="static">
      <phase duration="24.640612624" state="Gr"/>
      <phase duration="5.65570980836" state="yr"/>
      <phase duration="24.640612624" state="rG"/>
      <phase duration="5.65570980836" state="ry"/>
   </tlLogic>
   <tlLogic id="1271504743" offset="0" programID="0" type="static">
      <phase duration="13.0893440961" state="G"/>
      <phase duration="6.04130656396" state="y"/>
   </tlLogic>
   <tlLogic id="1271504755" offset="0" programID="0" type="static">
      <phase duration="20.6529224381" state="GGrrr"/>
      <phase duration="7.56570059438" state="yyrrr"/>
      <phase duration="20.6529224381" state="rrGrr"/>
      <phase duration="7.56570059438" state="rryrr"/>
      <phase duration="20.6529224381" state="rrrGG"/>
      <phase duration="7.56570059438" state="rrryy"/>
   </tlLogic>
   <tlLogic id="1271504756" offset="0" programID="0" type="static">
      <phase duration="22.8581206972" state="Gr"/>
      <phase duration="7.11816819314" state="yr"/>
      <phase duration="22.8581206972" state="rG"/>
      <phase duration="7.11816819314" state="ry"/>
   </tlLogic>
   <tlLogic id="1271504758" offset="0" programID="0" type="static">
      <phase duration="13.9053901158" state="G"/>
      <phase duration="7.26220502848" state="y"/>
   </tlLogic>
   <tlLogic id="1271504764" offset="0" programID="0" type="static">
      <phase duration="32.8428550499" state="G"/>
      <phase duration="4.21886141869" state="y"/>
   </tlLogic>
   <tlLogic id="1271504766" offset="0" programID="0" type="static">
      <phase duration="22.0313286279" state="Gr"/>
      <phase duration="3.31331451497" state="yr"/>
      <phase duration="22.0313286279" state="rG"/>
      <phase duration="3.31331451497" state="ry"/>
   </tlLogic>
   <tlLogic id="1271504767" offset="0" programID="0" type="static">
      <phase duration="21.9969273882" state="G"/>
      <phase duration="6.53170165434" state="y"/>
   </tlLogic>
   <tlLogic id="1271504781" offset="0" programID="0" type="static">
      <phase duration="30.3694599978" state="GGrrr"/>
      <phase duration="2.95342391274" state="yyrrr"/>
      <phase duration="30.3694599978" state="rrGrr"/>
      <phase duration="2.95342391274" state="rryrr"/>
      <phase duration="30.3694599978" state="rrrGG"/>
      <phase duration="2.95342391274" state="rrryy"/>
   </tlLogic>
   <tlLogic id="1271504788" offset="0" programID="0" type="static">
      <phase duration="25.3730262806" state="GGrrr"/>
      <phase duration="6.13954027556" state="yyrrr"/>
      <phase duration="25.3730262806" state="rrGGG"/>
      <phase duration="6.13954027556" state="rryyy"/>
   </tlLogic>
   <tlLogic id="1271504797" offset="0" programID="0" type="static">
      <phase duration="18.7033741765" state="Gr"/>
      <phase duration="6.47422519342" state="yr"/>
      <phase duration="18.7033741765" state="rG"/>
      <phase duration="6.47422519342" state="ry"/>
   </tlLogic>
   <tlLogic id="1271504812" offset="0" programID="0" type="static">
      <phase duration="7.11197064078" state="G"/>
      <phase duration="5.76161695427" state="y"/>
   </tlLogic>
   <tlLogic id="1271504815" offset="0" programID="0" type="static">
      <phase duration="15.1749839461" state="Gr"/>
      <phase duration="6.49636457807" state="yr"/>
      <phase duration="15.1749839461" state="rG"/>
      <phase duration="6.49636457807" state="ry"/>
   </tlLogic>
   <tlLogic id="1271504819" offset="0" programID="0" type="static">
      <phase duration="21.6933829551" state="Gr"/>
      <phase duration="4.10204793888" state="yr"/>
      <phase duration="21.6933829551" state="rG"/>
      <phase duration="4.10204793888" state="ry"/>
   </tlLogic>
   <tlLogic id="1271504824" offset="0" programID="0" type="static">
      <phase duration="22.5797234775" state="G"/>
      <phase duration="7.69999517549" state="y"/>
   </tlLogic>
   <tlLogic id="1271504827" offset="0" programID="0" type="static">
      <phase duration="28.6969091395" state="Gr"/>
      <phase duration="6.17903464126" state="yr"/>
      <phase duration="28.6969091395" state="rG"/>
      <phase duration="6.17903464126" state="ry"/>
   </tlLogic>
   <tlLogic id="1271504828" offset="0" programID="0" type="static">
      <phase duration="27.7589327407" state="GGrrr"/>
      <phase duration="4.43067812975" state="yyrrr"/>
      <phase duration="27.7589327407" state="rrGrr"/>
      <phase duration="4.43067812975" state="rryrr"/>
      <phase duration="27.7589327407" state="rrrGG"/>
      <phase duration="4.43067812975" state="rrryy"/>
   </tlLogic>
   <tlLogic id="1271504829" offset="0" programID="0" type="static">
      <phase duration="25.803600026" state="Gr"/>
      <phase duration="7.86495445558" state="yr"/>
      <phase duration="25.803600026" state="rG"/>
      <phase duration="7.86495445558" state="ry"/>
   </tlLogic>
   <tlLogic id="1271504831" offset="0" programID="0" type="static">
      <phase duration="16.7298961169" state="G"/>
      <phase duration="7.04250861051" state="y"/>
   </tlLogic>
   <tlLogic id="1271504836" offset="0" programID="0" type="static">
      <phase duration="27.4404406935" state="G"/>
      <phase duration="5.05905404827" state="y"/>
   </tlLogic>
   <tlLogic id="1271504838" offset="0" programID="0" type="static">
      <phase duration="16.1852997544" state="GGrrr"/>
      <phase duration="3.86682011139" state="yyrrr"/>
      <phase duration="16.1852997544" state="rrGGr"/>
      <phase duration="3.86682011139" state="rryyr"/>
      <phase duration="16.1852997544" state="rrrrG"/>
      <phase duration="3.86682011139" state="rrrry"/>
   </tlLogic>
   <tlLogic id="1271504841" offset="0" programID="0" type="static">
      <phase duration="24.1083220585" state="G"/>
      <phase duration="9.39306319645" state="y"/>
   </tlLogic>
   <tlLogic id="1271504843" offset="0" programID="0" type="static">
      <phase duration="13.6103867196" state="Gr"/>
      <phase duration="4.18697787099" state="yr"/>
      <phase duration="13.6103867196" state="rG"/>
      <phase duration="4.18697787099" state="ry"/>
   </tlLogic>
   <tlLogic id="1271504844" offset="0" programID="0" type="static">
      <phase duration="16.2255545939" state="G"/>
      <phase duration="8.57492390432" state="y"/>
   </tlLogic>
   <tlLogic id="1271504849" offset="0" programID="0" type="static">
      <phase duration="13.3581298612" state="GGrrr"/>
      <phase duration="5.18674231934" state="yyrrr"/>
      <phase duration="13.3581298612" state="rrGrr"/>
      <phase duration="5.18674231934" state="rryrr"/>
      <phase duration="13.3581298612" state="rrrGG"/>
      <phase duration="5.18674231934" state="rrryy"/>
   </tlLogic>
   <tlLogic id="1271504851" offset="0" programID="0" type="static">
      <phase duration="17.8583590072" state="G"/>
      <phase duration="5.43441008764" state="y"/>
   </tlLogic>
   <tlLogic id="1271504861" offset="0" programID="0" type="static">
      <phase duration="22.3655869858" state="G"/>
      <phase duration="7.67985382599" state="y"/>
   </tlLogic>
   <tlLogic id="1271504866" offset="0" programID="0" type="static">
      <phase duration="19.0018092039" state="G"/>
      <phase duration="7.05672873732" state="y"/>
   </tlLogic>
   <tlLogic id="1271504867" offset="0" programID="0" type="static">
      <phase duration="10.3930271518" state="G"/>
      <phase duration="5.15246222763" state="y"/>
   </tlLogic>
   <tlLogic id="1271504868" offset="0" programID="0" type="static">
      <phase duration="21.7186575995" state="Gr"/>
      <phase duration="5.85281337137" state="yr"/>
      <phase duration="21.7186575995" state="rG"/>
      <phase duration="5.85281337137" state="ry"/>
   </tlLogic>
   <tlLogic id="1271504870" offset="0" programID="0" type="static">
      <phase duration="23.9276049803" state="G"/>
      <phase duration="8.32242581847" state="y"/>
   </tlLogic>
   <tlLogic id="1271504871" offset="0" programID="0" type="static">
      <phase duration="8.04754895442" state="GGrr"/>
      <phase duration="4.15319626476" state="yyrr"/>
      <phase duration="8.04754895442" state="rrGG"/>
      <phase duration="4.15319626476" state="rryy"/>
   </tlLogic>
   <tlLogic id="1271504873" offset="0" programID="0" type="static">
      <phase duration="12.551841442" state="GGrrr"/>
      <phase duration="6.04509498187" state="yyrrr"/>
      <phase duration="12.551841442" state="rrGrr"/>
      <phase duration="6.04509498187" state="rryrr"/>
      <phase duration="12.551841442" state="rrrGG"/>
      <phase duration="6.04509498187" state="rrryy"/>
   </tlLogic>
   <tlLogic id="1271504874" offset="0" programID="0" type="static">
      <phase duration="34.9435458642" state="G"/>
      <phase duration="6.35958522345" state="y"/>
   </tlLogic>
   <tlLogic id="1271504881" offset="0" programID="0" type="static">
      <phase duration="30.8959272759" state="GGrrr"/>
      <phase duration="6.49833090111" state="yyrrr"/>
      <phase duration="30.8959272759" state="rrGrr"/>
      <phase duration="6.49833090111" state="rryrr"/>
      <phase duration="30.8959272759" state="rrrGG"/>
      <phase duration="6.49833090111" state="rrryy"/>
   </tlLogic>
   <tlLogic id="1271504883" offset="0" programID="0" type="static">
      <phase duration="17.9385757862" state="GGrrr"/>
      <phase duration="2.38374576319" state="yyrrr"/>
      <phase duration="17.9385757862" state="rrGrr"/>
      <phase duration="2.38374576319" state="rryrr"/>
      <phase duration="17.9385757862" state="rrrGG"/>
      <phase duration="2.38374576319" state="rrryy"/>
   </tlLogic>
   <tlLogic id="1271504887" offset="0" programID="0" type="static">
      <phase duration="9.36330742495" state="G"/>
      <phase duration="7.32152691903" state="y"/>
   </tlLogic>
   <tlLogic id="1271504888" offset="0" programID="0" type="static">
      <phase duration="10.4847851436" state="G"/>
      <phase duration="4.71902541299" state="y"/>
   </tlLogic>
   <tlLogic id="1271504893" offset="0" programID="0" type="static">
      <phase duration="19.3534284557" state="GGrrr"/>
      <phase duration="3.74516202665" state="yyrrr"/>
      <phase duration="19.3534284557" state="rrGrr"/>
      <phase duration="3.74516202665" state="rryrr"/>
      <phase duration="19.3534284557" state="rrrGG"/>
      <phase duration="3.74516202665" state="rrryy"/>
   </tlLogic>
   <tlLogic id="1271504895" offset="0" programID="0" type="static">
      <phase duration="24.4599137558" state="GGrrr"/>
      <phase duration="3.61954604212" state="yyrrr"/>
      <phase duration="24.4599137558" state="rrGrr"/>
      <phase duration="3.61954604212" state="rryrr"/>
      <phase duration="24.4599137558" state="rrrGG"/>
      <phase duration="3.61954604212" state="rrryy"/>
   </tlLogic>
   <tlLogic id="1271504901" offset="0" programID="0" type="static">
      <phase duration="25.7228703809" state="GGrrr"/>
      <phase duration="4.4302427938" state="yyrrr"/>
      <phase duration="25.7228703809" state="rrGrr"/>
      <phase duration="4.4302427938" state="rryrr"/>
      <phase duration="25.7228703809" state="rrrGG"/>
      <phase duration="4.4302427938" state="rrryy"/>
   </tlLogic>
   <tlLogic id="1271504902" offset="0" programID="0" type="static">
      <phase duration="25.9740908656" state="Gr"/>
      <phase duration="4.77510006419" state="yr"/>
      <phase duration="25.9740908656" state="rG"/>
      <phase duration="4.77510006419" state="ry"/>
   </tlLogic>
   <tlLogic id="1271504905" offset="0" programID="0" type="static">
      <phase duration="17.8167637073" state="G"/>
      <phase duration="8.28949946294" state="y"/>
   </tlLogic>
   <tlLogic id="1271504907" offset="0" programID="0" type="static">
      <phase duration="15.4436343675" state="G"/>
      <phase duration="2.79267140089" state="y"/>
   </tlLogic>
   <tlLogic id="1271504910" offset="0" programID="0" type="static">
      <phase duration="28.83617226" state="Gr"/>
      <phase duration="7.16599028038" state="yr"/>
      <phase duration="28.83617226" state="rG"/>
      <phase duration="7.16599028038" state="ry"/>
   </tlLogic>
   <tlLogic id="1299369677" offset="0" programID="0" type="static">
      <phase duration="30.8929776553" state="G"/>
      <phase duration="5.71047824083" state="y"/>
   </tlLogic>
   <tlLogic id="1299369689" offset="0" programID="0" type="static">
      <phase duration="26.2009597077" state="GGrrr"/>
      <phase duration="6.15178748016" state="yyrrr"/>
      <phase duration="26.2009597077" state="rrGrr"/>
      <phase duration="6.15178748016" state="rryrr"/>
      <phase duration="26.2009597077" state="rrrGG"/>
      <phase duration="6.15178748016" state="rrryy"/>
   </tlLogic>
   <tlLogic id="1299369699" offset="0" programID="0" type="static">
      <phase duration="17.1835027037" state="G"/>
      <phase duration="6.58492671267" state="y"/>
   </tlLogic>
   <tlLogic id="1299369701" offset="0" programID="0" type="static">
      <phase duration="26.04241072" state="GGrrr"/>
      <phase duration="6.19333681176" state="yyrrr"/>
      <phase duration="26.04241072" state="rrGrr"/>
      <phase duration="6.19333681176" state="rryrr"/>
      <phase duration="26.04241072" state="rrrGG"/>
      <phase duration="6.19333681176" state="rrryy"/>
   </tlLogic>
   <tlLogic id="1312440659" offset="0" programID="0" type="static">
      <phase duration="16.8756053214" state="GGrrr"/>
      <phase duration="8.0267574796" state="yyrrr"/>
      <phase duration="16.8756053214" state="rrGrr"/>
      <phase duration="8.0267574796" state="rryrr"/>
      <phase duration="16.8756053214" state="rrrGG"/>
      <phase duration="8.0267574796" state="rrryy"/>
   </tlLogic>
   <tlLogic id="1312812204" offset="0" programID="0" type="static">
      <phase duration="21.3511121041" state="G"/>
      <phase duration="5.73171596972" state="y"/>
   </tlLogic>
   <tlLogic id="1353566368" offset="0" programID="0" type="static">
      <phase duration="21.3440658594" state="G"/>
      <phase duration="6.72047078406" state="y"/>
   </tlLogic>
   <tlLogic id="1360932319" offset="0" programID="0" type="static"/>
   <tlLogic id="1366801174" offset="0" programID="0" type="static">
      <phase duration="19.2121281527" state="G"/>
      <phase duration="5.71259982832" state="y"/>
   </tlLogic>
   <tlLogic id="1366801190" offset="0" programID="0" type="static"/>
   <tlLogic id="1366801194" offset="0" programID="0" type="static"/>
   <tlLogic id="1366801200" offset="0" programID="0" type="static">
      <phase duration="15.9974853498" state="Gr"/>
      <phase duration="3.90795902329" state="yr"/>
      <phase duration="15.9974853498" state="rG"/>
      <phase duration="3.90795902329" state="ry"/>
   </tlLogic>
   <tlLogic id="1366801204" offset="0" programID="0" type="static">
      <phase duration="18.4465142635" state="G"/>
      <phase duration="6.70051425463" state="y"/>
   </tlLogic>
   <tlLogic id="1366801217" offset="0" programID="0" type="static">
      <phase duration="18.1326694177" state="G"/>
      <phase duration="8.46100916601" state="y"/>
   </tlLogic>
   <tlLogic id="1366801221" offset="0" programID="0" type="static">
      <phase duration="18.1989295242" state="Gr"/>
      <phase duration="7.20348313824" state="yr"/>
      <phase duration="18.1989295242" state="rG"/>
      <phase duration="7.20348313824" state="ry"/>
   </tlLogic>
   <tlLogic id="1366801262" offset="0" programID="0" type="static">
      <phase duration="27.2715760495" state="G"/>
      <phase duration="7.39755362704" state="y"/>
   </tlLogic>
   <tlLogic id="1366801267" offset="0" programID="0" type="static">
      <phase duration="31.5469968965" state="Grr"/>
      <phase duration="6.6180529704" state="yrr"/>
      <phase duration="31.5469968965" state="rGr"/>
      <phase duration="6.6180529704" state="ryr"/>
      <phase duration="31.5469968965" state="rrG"/>
      <phase duration="6.6180529704" state="rry"/>
   </tlLogic>
   <tlLogic id="1492679678" offset="0" programID="0" type="static">
      <phase duration="29.1726641468" state="Gr"/>
      <phase duration="9.22720237341" state="yr"/>
      <phase duration="29.1726641468" state="rG"/>
      <phase duration="9.22720237341" state="ry"/>
   </tlLogic>
   <tlLogic id="1492679687" offset="0" programID="0" type="static">
      <phase duration="34.1876010282" state="Gr"/>
      <phase duration="6.93294642216" state="yr"/>
      <phase duration="34.1876010282" state="rG"/>
      <phase duration="6.93294642216" state="ry"/>
   </tlLogic>
   <tlLogic id="1492679726" offset="0" programID="0" type="static">
      <phase duration="10.7317290911" state="G"/>
      <phase duration="7.03975039625" state="y"/>
   </tlLogic>
   <tlLogic id="1492679729" offset="0" programID="0" type="static">
      <phase duration="19.9962504999" state="G"/>
      <phase duration="6.02911499394" state="y"/>
   </tlLogic>
   <tlLogic id="1492679731" offset="0" programID="0" type="static">
      <phase duration="4.12684572028" state="Gr"/>
      <phase duration="6.24450474016" state="yr"/>
      <phase duration="4.12684572028" state="rG"/>
      <phase duration="6.24450474016" state="ry"/>
   </tlLogic>
   <tlLogic id="1492679753" offset="0" programID="0" type="static">
      <phase duration="18.7166219908" state="G"/>
      <phase duration="3.69277720246" state="y"/>
   </tlLogic>
   <tlLogic id="1492679755" offset="0" programID="0" type="static">
      <phase duration="12.9488206238" state="G"/>
      <phase duration="7.96626383253" state="y"/>
   </tlLogic>
   <tlLogic id="1492679756" offset="0" programID="0" type="static">
      <phase duration="15.5035047363" state="G"/>
      <phase duration="8.24128767448" state="y"/>
   </tlLogic>
   <tlLogic id="1492729095" offset="0" programID="0" type="static">
      <phase duration="28.7513807052" state="G"/>
      <phase duration="7.61836468983" state="y"/>
   </tlLogic>
   <tlLogic id="1492729111" offset="0" programID="0" type="static">
      <phase duration="27.8332950516" state="G"/>
      <phase duration="5.80510220107" state="y"/>
   </tlLogic>
   <tlLogic id="1492802032" offset="0" programID="0" type="static">
      <phase duration="15.5551496541" state="G"/>
      <phase duration="3.91354754963" state="y"/>
   </tlLogic>
   <tlLogic id="1492802065" offset="0" programID="0" type="static">
      <phase duration="16.2959724464" state="G"/>
      <phase duration="5.52396358977" state="y"/>
   </tlLogic>
   <tlLogic id="1492802066" offset="0" programID="0" type="static">
      <phase duration="23.0112334942" state="Gr"/>
      <phase duration="6.40584809315" state="yr"/>
      <phase duration="23.0112334942" state="rG"/>
      <phase duration="6.40584809315" state="ry"/>
   </tlLogic>
   <tlLogic id="1492802067" offset="0" programID="0" type="static">
      <phase duration="8.08945314179" state="G"/>
      <phase duration="7.45763015573" state="y"/>
   </tlLogic>
   <tlLogic id="1492802093" offset="0" programID="0" type="static">
      <phase duration="18.0210743163" state="GGrrr"/>
      <phase duration="7.70497296759" state="yyrrr"/>
      <phase duration="18.0210743163" state="rrGGG"/>
      <phase duration="7.70497296759" state="rryyy"/>
   </tlLogic>
   <tlLogic id="1492802180" offset="0" programID="0" type="static">
      <phase duration="13.4472661176" state="GGrrr"/>
      <phase duration="8.73168377787" state="yyrrr"/>
      <phase duration="13.4472661176" state="rrGrr"/>
      <phase duration="8.73168377787" state="rryrr"/>
      <phase duration="13.4472661176" state="rrrGG"/>
      <phase duration="8.73168377787" state="rrryy"/>
   </tlLogic>