<?xml version="1.0" ?>
<tlLogics>
   <tlLogic id="1000099503" offset="0" programID="0" type="static">
      <phase duration="15.3560168591" state="GGGrrrrrrrr"/>
      <phase duration="5.3380774469" state="yyyrrrrrrrr"/>
      <phase duration="15.3560168591" state="rrrGGGrrrrr"/>
      <phase duration="5.3380774469" state="rrryyyrrrrr"/>
      <phase duration="15.3560168591" state="rrrrrrGGGGG"/>
      <phase duration="5.3380774469" state="rrrrrryyyyy"/>
   </tlLogic>
   <tlLogic id="1000099544" offset="0" programID="0" type="static">
      <phase duration="14.7832033315" state="GGrrr"/>
      <phase duration="2.81656909207" state="yyrrr"/>
      <phase duration="14.7832033315" state="rrGGr"/>
      <phase duration="2.81656909207" state="rryyr"/>
      <phase duration="14.7832033315" state="rrrrG"/>
      <phase duration="2.81656909207" state="rrrry"/>
   </tlLogic>
   <tlLogic id="1000099551" offset="0" programID="0" type="static">
      <phase duration="27.2887217111" state="G"/>
      <phase duration="2.56165859838" state="y"/>
   </tlLogic>
   <tlLogic id="1000099607" offset="0" programID="0" type="static">
      <phase duration="32.9815172935" state="GGr"/>
      <phase duration="8.21742275168" state="yyr"/>
      <phase duration="32.9815172935" state="rrG"/>
      <phase duration="8.21742275168" state="rry"/>
   </tlLogic>
   <tlLogic id="1000099651" offset="0" programID="0" type="static">
      <phase duration="17.4493028369" state="GGrrrr"/>
      <phase duration="2.39908341568" state="yyrrrr"/>
      <phase duration="17.4493028369" state="rrGGrr"/>
      <phase duration="2.39908341568" state="rryyrr"/>
      <phase duration="17.4493028369" state="rrrrGG"/>
      <phase duration="2.39908341568" state="rrrryy"/>
   </tlLogic>
   <tlLogic id="1000099788" offset="0" programID="0" type="static">
      <phase duration="26.495786487" state="GGrr"/>
      <phase duration="4.59459689976" state="yyrr"/>
      <phase duration="26.495786487" state="rrGG"/>
      <phase duration="4.59459689976" state="rryy"/>
   </tlLogic>
   <tlLogic id="1012321573" offset="0" programID="0" type="static">
      <phase duration="17.0417668993" state="Gr"/>
      <phase duration="8.37561245337" state="yr"/>
      <phase duration="17.0417668993" state="rG"/>
      <phase duration="8.37561245337" state="ry"/>
   </tlLogic>
   <tlLogic id="1037290822" offset="0" programID="0" type="static">
      <phase duration="17.7314557832" state="GGrr"/>
      <phase duration="6.61061310301" state="yyrr"/>
      <phase duration="17.7314557832" state="rrGG"/>
      <phase duration="6.61061310301" state="rryy"/>
   </tlLogic>
   <tlLogic id="1037290889" offset="0" programID="0" type="static">
      <phase duration="26.7718109831" state="GGrr"/>
      <phase duration="8.30796138463" state="yyrr"/>
      <phase duration="26.7718109831" state="rrGG"/>
      <phase duration="8.30796138463" state="rryy"/>
   </tlLogic>
   <tlLogic id="1037290944" offset="0" programID="0" type="static">
      <phase duration="16.8739519191" state="G"/>
      <phase duration="5.4502538383" state="y"/>
   </tlLogic>
   <tlLogic id="1040964333" offset="0" programID="0" type="static">
      <phase duration="22.7753614986" state="Gr"/>
      <phase duration="3.63330340233" state="yr"/>
      <phase duration="22.7753614986" state="rG"/>
      <phase duration="3.63330340233" state="ry"/>
   </tlLogic>
   <tlLogic id="1045044715" offset="0" programID="0" type="static">
      <phase duration="11.0952899976" state="Gr"/>
      <phase duration="4.72114690085" state="yr"/>
      <phase duration="11.0952899976" state="rG"/>
      <phase duration="4.72114690085" state="ry"/>
   </tlLogic>
   <tlLogic id="1045044750" offset="0" programID="0" type="static">
      <phase duration="28.6235825414" state="Gr"/>
      <phase duration="7.47384527178" state="yr"/>
      <phase duration="28.6235825414" state="rG"/>
      <phase duration="7.47384527178" state="ry"/>
   </tlLogic>
   <tlLogic id="1045044796" offset="0" programID="0" type="static">
      <phase duration="28.9152166122" state="Gr"/>
      <phase duration="3.79682115382" state="yr"/>
      <phase duration="28.9152166122" state="rG"/>
      <phase duration="3.79682115382" state="ry"/>
   </tlLogic>
   <tlLogic id="1045044863" offset="0" programID="0" type="static">
      <phase duration="27.752294792" state="G"/>
      <phase duration="6.36282541629" state="y"/>
   </tlLogic>
   <tlLogic id="1109589987" offset="0" programID="0" type="static">
      <phase duration="33.1087316225" state="GGrr"/>
      <phase duration="6.24800917301" state="yyrr"/>
      <phase duration="33.1087316225" state="rrGG"/>
      <phase duration="6.24800917301" state="rryy"/>
   </tlLogic>
   <tlLogic id="1149210260" offset="0" programID="0" type="static">
      <phase duration="27.0672095755" state="Gr"/>
      <phase duration="5.18357297516" state="yr"/>
      <phase duration="27.0672095755" state="rG"/>
      <phase duration="5.18357297516" state="ry"/>
   </tlLogic>
   <tlLogic id="1150667540" offset="0" programID="0" type="static">
      <phase duration="25.50472514" state="G"/>
      <phase duration="6.36969185327" state="y"/>
   </tlLogic>
   <tlLogic id="1150667552" offset="0" programID="0" type="static">
      <phase duration="17.9755932989" state="Gr"/>
      <phase duration="5.55662618172" state="yr"/>
      <phase duration="17.9755932989" state="rG"/>
      <phase duration="5.55662618172" state="ry"/>
   </tlLogic>
   <tlLogic id="1150667555" offset="0" programID="0" type="static">
      <phase duration="28.2204319263" state="Gr"/>
      <phase duration="7.36778856062" state="yr"/>
      <phase duration="28.2204319263" state="rG"/>
      <phase duration="7.36778856062" state="ry"/>
   </tlLogic>
   <tlLogic id="1150667558" offset="0" programID="0" type="static">
      <phase duration="16.9682525705" state="Gr"/>
      <phase duration="9.14892202562" state="yr"/>
      <phase duration="16.9682525705" state="rG"/>
      <phase duration="9.14892202562" state="ry"/>
   </tlLogic>
   <tlLogic id="1150667568" offset="0" programID="0" type="static"/>
   <tlLogic id="1150667571" offset="0" programID="0" type="static">
      <phase duration="22.467796508" state="G"/>
      <phase duration="2.89232294324" state="y"/>
   </tlLogic>
   <tlLogic id="1150667586" offset="0" programID="0" type="static">
      <phase duration="12.3829691546" state="G"/>
      <phase duration="5.49614260519" state="y"/>
   </tlLogic>
   <tlLogic id="1150667608" offset="0" programID="0" type="static">
      <phase duration="30.5423734866" state="Gr"/>
      <phase duration="3.65349561719" state="yr"/>
      <phase duration="30.5423734866" state="rG"/>
      <phase duration="3.65349561719" state="ry"/>
   </tlLogic>
   <tlLogic id="1150667618" offset="0" programID="0" type="static">
      <phase duration="33.9341105579" state="G"/>
      <phase duration="4.78247085063" state="y"/>
   </tlLogic>
   <tlLogic id="1156723779" offset="0" programID="0" type="static">
      <phase duration="32.1022450795" state="GGrrr"/>
      <phase duration="7.59462868394" state="yyrrr"/>
      <phase duration="32.1022450795" state="rrGrr"/>
      <phase duration="7.59462868394" state="rryrr"/>
      <phase duration="32.1022450795" state="rrrGG"/>
      <phase duration="7.59462868394" state="rrryy"/>
   </tlLogic>
   <tlLogic id="1156723834" offset="0" programID="0" type="static">
      <phase duration="18.8775120884" state="G"/>
      <phase duration="7.36955673542" state="y"/>
   </tlLogic>
   <tlLogic id="1156723839" offset="0" programID="0" type="static">
      <phase duration="26.3735121935" state="Gr"/>
      <phase duration="5.07061639768" state="yr"/>
      <phase duration="26.3735121935" state="rG"/>
      <phase duration="5.07061639768" state="ry"/>
   </tlLogic>
   <tlLogic id="1200892960" offset="0" programID="0" type="static">
      <phase duration="34.0905446401" state="Gr"/>
      <phase duration="4.80558615066" state="yr"/>
      <phase duration="34.0905446401" state="rG"/>
      <phase duration="4.80558615066" state="ry"/>
   </tlLogic>
   <tlLogic id="1201745377" offset="0" programID="0" type="static">
      <phase duration="12.8502645536" state="G"/>
      <phase duration="6.53596902742" state="y"/>
   </tlLogic>
   <tlLogic id="1201745399" offset="0" programID="0" type="static"/>
   <tlLogic id="1211136497" offset="0" programID="0" type="static">
      <phase duration="21.2701065388" state="GGrr"/>
      <phase duration="6.14757717865" state="yyrr"/>
      <phase duration="21.2701065388" state="rrGG"/>
      <phase duration="6.14757717865" state="rryy"/>
   </tlLogic>
   <tlLogic id="1211136595" offset="0" programID="0" type="static">
      <phase duration="31.7795671351" state="G"/>
      <phase duration="6.60963739291" state="y"/>
   </tlLogic>
   <tlLogic id="1211136870" offset="0" programID="0" type="static">
      <phase duration="28.5001478535" state="GGrr"/>
      <phase duration="4.20785688157" state="yyrr"/>
      <phase duration="28.5001478535" state="rrGG"/>
      <phase duration="4.20785688157" state="rryy"/>
   </tlLogic>
   <tlLogic id="1220020545" offset="0" programID="0" type="static">
      <phase duration="18.2262349659" state="GGrrr"/>
      <phase duration="2.28743591461" state="yyrrr"/>
      <phase duration="18.2262349659" state="rrGrr"/>
      <phase duration="2.28743591461" state="rryrr"/>
      <phase duration="18.2262349659" state="rrrGG"/>
      <phase duration="2.28743591461" state="rrryy"/>
   </tlLogic>
   <tlLogic id="1220020588" offset="0" programID="0" type="static">
      <phase duration="24.2132134364" state="GGrr"/>
      <phase duration="3.94486009514" state="yyrr"/>
      <phase duration="24.2132134364" state="rrGG"/>
      <phase duration="3.94486009514" state="rryy"/>
   </tlLogic>
   <tlLogic id="1220020592" offset="0" programID="0" type="static">
      <phase duration="16.8538125808" state="Gr"/>
      <phase duration="7.51128877366" state="yr"/>
      <phase duration="16.8538125808" state="rG"/>
      <phase duration="7.51128877366" state="ry"/>
   </tlLogic>
   <tlLogic id="1220020630" offset="0" programID="0" type="static">
      <phase duration="34.5532896042" state="Gr"/>
      <phase duration="2.62498754739" state="yr"/>
      <phase duration="34.5532896042" state="rG"/>
      <phase duration="2.62498754739" state="ry"/>
   </tlLogic>
   <tlLogic id="1229522462" offset="0" programID="0" type="static">
      <phase duration="10.5712170518" state="G"/>
      <phase duration="5.161362139" state="y"/>
   </tlLogic>
   <tlLogic id="1229522509" offset="0" programID="0" type="static">
      <phase duration="22.9121660101" state="G"/>
      <phase duration="9.26619618925" state="y"/>
   </tlLogic>
   <tlLogic id="1252265070" offset="0" programID="0" type="static"/>
   <tlLogic id="1252285082" offset="0" programID="0" type="static">
      <phase duration="17.6433790036" state="G"/>
      <phase duration="5.58390697487" state="y"/>
   </tlLogic>
   <tlLogic id="1252285085" offset="0" programID="0" type="static">
      <phase duration="24.41173873" state="Gr"/>
      <phase duration="2.18647041152" state="yr"/>
      <phase duration="24.41173873" state="rG"/>
      <phase duration="2.18647041152" state="ry"/>
   </tlLogic>
   <tlLogic id="1252285087" offset="0" programID="0" type="static"/>
   <tlLogic id="1252285107" offset="0" programID="0" type="static">
      <phase duration="31.100174522" state="G"/>
      <phase duration="4.45086493059" state="y"/>
   </tlLogic>
   <tlLogic id="1271504738" offset="0" programID="0" type="static">
      <phase duration="24.2502831804" state="Gr"/>
      <phase duration="6.19255260981" state="yr"/>
      <phase duration="24.2502831804" state="rG"/>
      <phase duration="6.19255260981" state="ry"/>
   </tlLogic>
   <tlLogic id="1271504743" offset="0" programID="0" type="static">
      <phase duration="13.2589963617" state="G"/>
      <phase duration="5.83854842237" state="y"/>
   </tlLogic>
   <tlLogic id="1271504747" offset="0" programID="0" type="static">
      <phase duration="23.9215825446" state="Gr"/>
      <phase duration="2.59639741294" state="yr"/>
      <phase duration="23.9215825446" state="rG"/>
      <phase duration="2.59639741294" state="ry"/>
   </tlLogic>
   <tlLogic id="1271504750" offset="0" programID="0" type="static">
      <phase duration="26.2861963038" state="G"/>
      <phase duration="6.97379533536" state="y"/>
   </tlLogic>
   <tlLogic id="1271504755" offset="0" programID="0" type="static">
      <phase duration="20.1242881151" state="GGrrr"/>
      <phase duration="8.29195834478" state="yyrrr"/>
      <phase duration="20.1242881151" state="rrGrr"/>
      <phase duration="8.29195834478" state="rryrr"/>
      <phase duration="20.1242881151" state="rrrGG"/>
      <phase duration="8.29195834478" state="rrryy"/>
   </tlLogic>
   <tlLogic id="1271504756" offset="0" programID="0" type="static">
      <phase duration="25.2163918415" state="Gr"/>
      <phase duration="6.11672009695" state="yr"/>
      <phase duration="25.2163918415" state="rG"/>
      <phase duration="6.11672009695" state="ry"/>
   </tlLogic>
   <tlLogic id="1271504758" offset="0" programID="0" type="static">
      <phase duration="14.4582213189" state="G"/>
      <phase duration="7.16963669097" state="y"/>
   </tlLogic>
   <tlLogic id="1271504767" offset="0" programID="0" type="static">
      <phase duration="21.6147701312" state="G"/>
      <phase duration="7.17077322966" state="y"/>
   </tlLogic>
   <tlLogic id="1271504781" offset="0" programID="0" type="static">
      <phase duration="31.2834821082" state="GGrrr"/>
      <phase duration="2.62494732379" state="yyrrr"/>
      <phase duration="31.2834821082" state="rrGrr"/>
      <phase duration="2.62494732379" state="rryrr"/>
      <phase duration="31.2834821082" state="rrrGG"/>
      <phase duration="2.62494732379" state="rrryy"/>
   </tlLogic>
   <tlLogic id="1271504783" offset="0" programID="0" type="static">
      <phase duration="8.4529748986" state="Gr"/>
      <phase duration="4.20620399508" state="yr"/>
      <phase duration="8.4529748986" state="rG"/>
      <phase duration="4.20620399508" state="ry"/>
   </tlLogic>
   <tlLogic id="1271504788" offset="0" programID="0" type="static">
      <phase duration="23.9801883128" state="GGrrr"/>
      <phase duration="4.72983851515" state="yyrrr"/>
      <phase duration="23.9801883128" state="rrGGG"/>
      <phase duration="4.72983851515" state="rryyy"/>
   </tlLogic>
   <tlLogic id="1271504797" offset="0" programID="0" type="static">
      <phase duration="17.1011691802" state="Gr"/>
      <phase duration="6.09653318635" state="yr"/>
      <phase duration="17.1011691802" state="rG"/>
      <phase duration="6.09653318635" state="ry"/>
   </tlLogic>
   <tlLogic id="1271504812" offset="0" programID="0" type="static">
      <phase duration="7.92936604607" state="G"/>
      <phase duration="5.13133531703" state="y"/>
   </tlLogic>
   <tlLogic id="1271504815" offset="0" programID="0" type="static">
      <phase duration="20.3445767468" state="Gr"/>
      <phase duration="4.54729793121" state="yr"/>
      <phase duration="20.3445767468" state="rG"/>
      <phase duration="4.54729793121" state="ry"/>
   </tlLogic>
   <tlLogic id="1271504822" offset="0" programID="0" type="static">
      <phase duration="27.3367197795" state="G"/>
      <phase duration="4.1754068284" state="y"/>
   </tlLogic>
   <tlLogic id="1271504824" offset="0" programID="0" type="static">
      <phase duration="21.6290216661" state="G"/>
      <phase duration="7.55767805345" state="y"/>
   </tlLogic>
   <tlLogic id="1271504827" offset="0" programID="0" type="static">
      <phase duration="29.9874402251" state="Gr"/>
      <phase duration="8.10479270345" state="yr"/>
      <phase duration="29.9874402251" state="rG"/>
      <phase duration="8.10479270345" state="ry"/>
   </tlLogic>
   <tlLogic id="1271504831" offset="0" programID="0" type="static">
      <phase duration="19.3937950762" state="G"/>
      <phase duration="6.89433303749" state="y"/>
   </tlLogic>
   <tlLogic id="1271504834" offset="0" programID="0" type="static">
      <phase duration="9.72096578826" state="G"/>
      <phase duration="2.52894830071" state="y"/>
   </tlLogic>
   <tlLogic id="1271504836" offset="0" programID="0" type="static">
      <phase duration="32.9042882262" state="G"/>
      <phase duration="4.92307048201" state="y"/>
   </tlLogic>
   <tlLogic id="1271504838" offset="0" programID="0" type="static">
      <phase duration="16.3843957724" state="GGrrr"/>
      <phase duration="4.72329197443" state="yyrrr"/>
      <phase duration="16.3843957724" state="rrGGr"/>
      <phase duration="4.72329197443" state="rryyr"/>
      <phase duration="16.3843957724" state="rrrrG"/>
      <phase duration="4.72329197443" state="rrrry"/>
   </tlLogic>
   <tlLogic id="1271504841" offset="0" programID="0" type="static">
      <phase duration="22.3196298745" state="G"/>
      <phase duration="9.08388920848" state="y"/>
   </tlLogic>
   <tlLogic id="1271504844" offset="0" programID="0" type="static">
      <phase duration="14.5133288275" state="G"/>
      <phase duration="7.15122829192" state="y"/>
   </tlLogic>
   <tlLogic id="1271504849" offset="0" programID="0" type="static">
      <phase duration="14.9371320503" state="GGrrr"/>
      <phase duration="4.86657050334" state="yyrrr"/>
      <phase duration="14.9371320503" state="rrGrr"/>
      <phase duration="4.86657050334" state="rryrr"/>
      <phase duration="14.9371320503" state="rrrGG"/>
      <phase duration="4.86657050334" state="rrryy"/>
   </tlLogic>
   <tlLogic id="1271504851" offset="0" programID="0" type="static">
      <phase duration="17.6950435503" state="G"/>
      <phase duration="6.52351414268" state="y"/>
   </tlLogic>
   <tlLogic id="1271504861" offset="0" programID="0" type="static">
      <phase duration="23.6462175393" state="G"/>
      <phase duration="7.40765121727" state="y"/>
   </tlLogic>
   <tlLogic id="1271504866" offset="0" programID="0" type="static">
      <phase duration="19.3922420517" state="G"/>
      <phase duration="8.02796424518" state="y"/>
   </tlLogic>
   <tlLogic id="1271504867" offset="0" programID="0" type="static">
      <phase duration="7.72484859044" state="G"/>
      <phase duration="3.88961246758" state="y"/>
   </tlLogic>
   <tlLogic id="1271504870" offset="0" programID="0" type="static">
      <phase duration="25.3367585787" state="G"/>
      <phase duration="8.09737860574" state="y"/>
   </tlLogic>
   <tlLogic id="1271504871" offset="0" programID="0" type="static">
      <phase duration="7.43131950661" state="GGrr"/>
      <phase duration="3.98265570911" state="yyrr"/>
      <phase duration="7.43131950661" state="rrGG"/>
      <phase duration="3.98265570911" state="rryy"/>
   </tlLogic>
   <tlLogic id="1271504873" offset="0" programID="0" type="static">
      <phase duration="14.7364000359" state="GGrrr"/>
      <phase duration="6.9404060228" state="yyrrr"/>
      <phase duration="14.7364000359" state="rrGrr"/>
      <phase duration="6.9404060228" state="rryrr"/>
      <phase duration="14.7364000359" state="rrrGG"/>
      <phase duration="6.9404060228" state="rrryy"/>
   </tlLogic>
   <tlLogic id="1271504875" offset="0" programID="0" type="static">
      <phase duration="23.5976686077" state="G"/>
      <phase duration="2.96923032809" state="y"/>
   </tlLogic>
   <tlLogic id="1271504887" offset="0" programID="0" type="static">
      <phase duration="9.162000342" state="G"/>
      <phase duration="7.03939480237" state="y"/>
   </tlLogic>
   <tlLogic id="1271504899" offset="0" programID="0" type="static">
      <phase duration="8.99197758344" state="G"/>
      <phase duration="3.54810349676" state="y"/>
   </tlLogic>
   <tlLogic id="1271504901" offset="0" programID="0" type="static">
      <phase duration="21.6966128643" state="GGrrr"/>
      <phase duration="4.60943376989" state="yyrrr"/>
      <phase duration="21.6966128643" state="rrGrr"/>
      <phase duration="4.60943376989" state="rryrr"/>
      <phase duration="21.6966128643" state="rrrGG"/>
      <phase duration="4.60943376989" state="rrryy"/>
   </tlLogic>
   <tlLogic id="1271504902" offset="0" programID="0" type="static">
      <phase duration="25.2007290893" state="Gr"/>
      <phase duration="4.36986418057" state="yr"/>
      <phase duration="25.2007290893" state="rG"/>
      <phase duration="4.36986418057" state="ry"/>
   </tlLogic>
   <tlLogic id="1271504904" offset="0" programID="0" type="static">
      <phase duration="25.7295639982" state="Grr"/>
      <phase duration="5.07961395054" state="yrr"/>
      <phase duration="25.7295639982" state="rGG"/>
      <phase duration="5.07961395054" state="ryy"/>
   </tlLogic>
   <tlLogic id="1271504905" offset="0" programID="0" type="static">
      <phase duration="19.6722061758" state="G"/>
      <phase duration="8.60493904328" state="y"/>
   </tlLogic>
   <tlLogic id="1271504908" offset="0" programID="0" type="static">
      <phase duration="22.8531015481" state="G"/>
      <phase duration="4.78228969766" state="y"/>
   </tlLogic>
   <tlLogic id="1271504910" offset="0" programID="0" type="static">
      <phase duration="28.7524864936" state="Gr"/>
      <phase duration="6.67577203902" state="yr"/>
      <phase duration="28.7524864936" state="rG"/>
      <phase duration="6.67577203902" state="ry"/>
   </tlLogic>
   <tlLogic id="1299369677" offset="0" programID="0" type="static">
      <phase duration="31.9394410566" state="G"/>
      <phase duration="5.10497458554" state="y"/>
   </tlLogic>
   <tlLogic id="1299369684" offset="0" programID="0" type="static">
      <phase duration="17.8598607138" state="G"/>
      <phase duration="3.57137094288" state="y"/>
   </tlLogic>
   <tlLogic id="1299369689" offset="0" programID="0" type="static">
      <phase duration="25.1983136332" state="GGrrr"/>
      <phase duration="6.12440620989" state="yyrrr"/>
      <phase duration="25.1983136332" state="rrGrr"/>
      <phase duration="6.12440620989" state="rryrr"/>
      <phase duration="25.1983136332" state="rrrGG"/>
      <phase duration="6.12440620989" state="rrryy"/>
   </tlLogic>
   <tlLogic id="1299369694" offset="0" programID="0" type="static">
      <phase duration="30.5180366212" state="G"/>
      <phase duration="4.78986939683" state="y"/>
   </tlLogic>
   <tlLogic id="1299369699" offset="0" programID="0" type="static">
      <phase duration="16.5360409338" state="G"/>
      <phase duration="6.59385055335" state="y"/>
   </tlLogic>
   <tlLogic id="1299369701" offset="0" programID="0" type="static">
      <phase duration="29.6182988401" state="GGrrr"/>
      <phase duration="7.22281279194" state="yyrrr"/>
      <phase duration="29.6182988401" state="rrGrr"/>
      <phase duration="7.22281279194" state="rryrr"/>
      <phase duration="29.6182988401" state="rrrGG"/>
      <phase duration="7.22281279194" state="rrryy"/>
   </tlLogic>
   <tlLogic id="1312440659" offset="0" programID="0" type="static">
      <phase duration="9.15075421953" state="GGrrr"/>
      <phase duration="8.17663130504" state="yyrrr"/>
      <phase duration="9.15075421953" state="rrGrr"/>
      <phase duration="8.17663130504" state="rryrr"/>
      <phase duration="9.15075421953" state="rrrGG"/>
      <phase duration="8.17663130504" state="rrryy"/>
   </tlLogic>
   <tlLogic id="1312812204" offset="0" programID="0" type="static">
      <phase duration="16.7340681035" state="G"/>
      <phase duration="5.75312879254" state="y"/>
   </tlLogic>
   <tlLogic id="1353566368" offset="0" programID="0" type="static">
      <phase duration="29.8451835137" state="G"/>
      <phase duration="6.32905082247" state="y"/>
   </tlLogic>
   <tlLogic id="1353566371" offset="0" programID="0" type="static">
      <phase duration="15.6427691557" state="G"/>
      <phase duration="5.48558224172" state="y"/>
   </tlLogic>
   <tlLogic id="1360932319" offset="0" programID="0" type="static"/>
   <tlLogic id="1366801200" offset="0" programID="0" type="static">
      <phase duration="16.4112031094" state="Gr"/>
      <phase duration="4.75100312499" state="yr"/>
      <phase duration="16.4112031094" state="rG"/>
      <phase duration="4.75100312499" state="ry"/>
   </tlLogic>
   <tlLogic id="1366801204" offset="0" programID="0" type="static">
      <phase duration="21.6013783234" state="G"/>
      <phase duration="7.53111226104" state="y"/>
   </tlLogic>
   <tlLogic id="1366801217" offset="0" programID="0" type="static">
      <phase duration="10.9712472688" state="G"/>
      <phase duration="8.13648556274" state="y"/>
   </tlLogic>
   <tlLogic id="1366801221" offset="0" programID="0" type="static">
      <phase duration="18.0379108161" state="Gr"/>
      <phase duration="7.15626789935" state="yr"/>
      <phase duration="18.0379108161" state="rG"/>
      <phase duration="7.15626789935" state="ry"/>
   </tlLogic>
   <tlLogic id="1366801267" offset="0" programID="0" type="static">
      <phase duration="29.5481837641" state="Grr"/>
      <phase duration="6.55150864423" state="yrr"/>
      <phase duration="29.5481837641" state="rGr"/>
      <phase duration="6.55150864423" state="ryr"/>
      <phase duration="29.5481837641" state="rrG"/>
      <phase duration="6.55150864423" state="rry"/>
   </tlLogic>
   <tlLogic id="1492679678" offset="0" programID="0" type="static">
      <phase duration="29.2872430062" state="Gr"/>
      <phase duration="8.73479865751" state="yr"/>
      <phase duration="29.2872430062" state="rG"/>
      <phase duration="8.73479865751" state="ry"/>
   </tlLogic>
   <tlLogic id="1492679687" offset="0" programID="0" type="static">
      <phase duration="33.9439321523" state="Gr"/>
      <phase duration="6.65372938652" state="yr"/>
      <phase duration="33.9439321523" state="rG"/>
      <phase duration="6.65372938652" state="ry"/>
   </tlLogic>
   <tlLogic id="1492679726" offset="0" programID="0" type="static">
      <phase duration="13.9340921957" state="G"/>
      <phase duration="5.21643512401" state="y"/>
   </tlLogic>
   <tlLogic id="1492679729" offset="0" programID="0" type="static">
      <phase duration="19.3584447167" state="G"/>
      <phase duration="5.55566969073" state="y"/>
   </tlLogic>
   <tlLogic id="1492679731" offset="0" programID="0" type="static">
      <phase duration="2.01836020314" state="Gr"/>
      <phase duration="5.48551588851" state="yr"/>
      <phase duration="2.01836020314" state="rG"/>
      <phase duration="5.48551588851" state="ry"/>
   </tlLogic>
   <tlLogic id="1492679753" offset="0" programID="0" type="static">
      <phase duration="21.5129388188" state="G"/>
      <phase duration="1.93114094154" state="y"/>
   </tlLogic>
   <tlLogic id="1492679756" offset="0" programID="0" type="static">
      <phase duration="12.5262399355" state="G"/>
      <phase duration="8.25176104591" state="y"/>
   </tlLogic>
   <tlLogic id="1492729097" offset="0" programID="0" type="static">
      <phase duration="21.4183947903" state="Gr"/>
      <phase duration="5.4538515387" state="yr"/>
      <phase duration="21.4183947903" state="rG"/>
      <phase duration="5.4538515387" state="ry"/>
   </tlLogic>
   <tlLogic id="1492729111" offset="0" programID="0" type="static">
      <phase duration="27.0974914837" state="G"/>
      <phase duration="5.73280552363" state="y"/>
   </tlLogic>
   <tlLogic id="1492802032" offset="0" programID="0" type="static">
      <phase duration="19.3605748568" state="G"/>
      <phase duration="3.99931169137" state="y"/>
   </tlLogic>
   <tlLogic id="1492802033" offset="0" programID="0" type="static">
      <phase duration="29.9067531846" state="GGrrr"/>
      <phase duration="6.0761945173" state="yyrrr"/>
      <phase duration="29.9067531846" state="rrGrr"/>
      <phase duration="6.0761945173" state="rryrr"/>
      <phase duration="29.9067531846" state="rrrGG"/>
      <phase duration="6.0761945173" state="rrryy"/>
   </tlLogic>
   <tlLogic id="1492802034" offset="0" programID="0" type="static">
      <phase duration="29.5028715259" state="G"/>
      <phase duration="7.73483459535" state="y"/>
   </tlLogic>
   <tlLogic id="1492802065" offset="0" programID="0" type="static">
      <phase duration="12.8074223214" state="G"/>
      <phase duration="5.39326376953" state="y"/>
   </tlLogic>
   <tlLogic id="1492802066" offset="0" programID="0" type="static">
      <phase duration="27.4027284349" state="Gr"/>
      <phase duration="4.5271057586" state="yr"/>
      <phase duration="27.4027284349" state="rG"/>
      <phase duration="4.5271057586" state="ry"/>
   </tlLogic>
   <tlLogic id="1492802067" offset="0" programID="0" type="static">
      <phase duration="7.08777361576" state="G"/>
      <phase duration="8.20860862626" state="y"/>
   </tlLogic>
   <tlLogic id="1492802092" offset="0" programID="0" type="static">
      <phase duration="27.1524021456" state="G"/>
      <phase duration="9.11038569953" state="y"/>
   </tlLogic>
   <tlLogic id="1492802093" offset="0" programID="0" type="static">
      <phase duration="26.3751696136" state="GGrrr"/>
      <phase duration="7.12063543905" state="yyrrr"/>
      <phase duration="26.3751696136" state="rrGGG"/>
      <phase duration="7.12063543905" state="rryyy"/>
   </tlLogic>
   <tlLogic id="1492802187" offset="0" programID="0" type="static">
      <phase duration="16.5719843249" state="Gr"/>
      <phase duration="6.59309619064" state="yr"/>
      <phase duration="16.5719843249" state="rG"/>
      <phase duration="6.59309619064" state="ry"/>
   </tlLogic>
   <tlLogic id="1520433227" offset="0" programID="0" type="static">
      <phase duration="24.4393743465" state="Gr"/>
      <phase duration="7.39830184818" state="yr"/>
      <phase duration="24.4393743465" state="rG"/>
      <phase duration="7.39830184818" state="ry"/>
   </tlLogic>
   <tlLogic id="1523162688" offset="0" programID="0" type="static">
      <phase duration="23.2874684404" state="Gr"/>