<?xml version="1.0" ?>
<tlLogics>
   <tlLogic id="1000099503" offset="0" programID="0" type="static">
      <phase duration="12.3919609362" state="GGGrrrrrrrr"/>
      <phase duration="3.59011067474" state="yyyrrrrrrrr"/>
      <phase duration="12.3919609362" state="rrrGGGrrrrr"/>
      <phase duration="3.59011067474" state="rrryyyrrrrr"/>
      <phase duration="12.3919609362" state="rrrrrrGGGGG"/>
      <phase duration="3.59011067474" state="rrrrrryyyyy"/>
   </tlLogic>
   <tlLogic id="1000099544" offset="0" programID="0" type="static">
      <phase duration="13.4954161241" state="GGrrr"/>
      <phase duration="4.53193898583" state="yyrrr"/>
      <phase duration="13.4954161241" state="rrGGr"/>
      <phase duration="4.53193898583" state="rryyr"/>
      <phase duration="13.4954161241" state="rrrrG"/>
      <phase duration="4.53193898583" state="rrrry"/>
   </tlLogic>
   <tlLogic id="1000099551" offset="0" programID="0" type="static">
      <phase duration="23.7839803359" state="G"/>
      <phase duration="3.17745351864" state="y"/>
   </tlLogic>
   <tlLogic id="1000099607" offset="0" programID="0" type="static">
      <phase duration="34.8499695912" state="GGr"/>
      <phase duration="8.63928044304" state="yyr"/>
      <phase duration="34.8499695912" state="rrG"/>
      <phase duration="8.63928044304" state="rry"/>
   </tlLogic>
   <tlLogic id="1000099651" offset="0" programID="0" type="static">
      <phase duration="16.2668701089" state="GGrrrr"/>
      <phase duration="2.40617272179" state="yyrrrr"/>
      <phase duration="16.2668701089" state="rrGGrr"/>
      <phase duration="2.40617272179" state="rryyrr"/>
      <phase duration="16.2668701089" state="rrrrGG"/>
      <phase duration="2.40617272179" state="rrrryy"/>
   </tlLogic>
   <tlLogic id="1000099788" offset="0" programID="0" type="static">
      <phase duration="23.6981382677" state="GGrr"/>
      <phase duration="4.03840859988" state="yyrr"/>
      <phase duration="23.6981382677" state="rrGG"/>
      <phase duration="4.03840859988" state="rryy"/>
   </tlLogic>
   <tlLogic id="1012321573" offset="0" programID="0" type="static">
      <phase duration="13.9088956305" state="Gr"/>
      <phase duration="7.67648481267" state="yr"/>
      <phase duration="13.9088956305" state="rG"/>
      <phase duration="7.67648481267" state="ry"/>
   </tlLogic>
   <tlLogic id="1028832186" offset="0" programID="0" type="static"/>
   <tlLogic id="1037290808" offset="0" programID="0" type="static">
      <phase duration="15.1234754799" state="GGGrrrrrr"/>
      <phase duration="7.11820596308" state="yyyrrrrrr"/>
      <phase duration="15.1234754799" state="rrrGGGrrr"/>
      <phase duration="7.11820596308" state="rrryyyrrr"/>
      <phase duration="15.1234754799" state="rrrrrrGGG"/>
      <phase duration="7.11820596308" state="rrrrrryyy"/>
   </tlLogic>
   <tlLogic id="1037290822" offset="0" programID="0" type="static">
      <phase duration="15.3200118943" state="GGrr"/>
      <phase duration="6.16210539658" state="yyrr"/>
      <phase duration="15.3200118943" state="rrGG"/>
      <phase duration="6.16210539658" state="rryy"/>
   </tlLogic>
   <tlLogic id="1037290889" offset="0" programID="0" type="static">
      <phase duration="26.7047750463" state="GGrr"/>
      <phase duration="8.41089321852" state="yyrr"/>
      <phase duration="26.7047750463" state="rrGG"/>
      <phase duration="8.41089321852" state="rryy"/>
   </tlLogic>
   <tlLogic id="1040964333" offset="0" programID="0" type="static">
      <phase duration="33.1146902469" state="Gr"/>
      <phase duration="5.76268855691" state="yr"/>
      <phase duration="33.1146902469" state="rG"/>
      <phase duration="5.76268855691" state="ry"/>
   </tlLogic>
   <tlLogic id="1045044715" offset="0" programID="0" type="static">
      <phase duration="11.1867434584" state="Gr"/>
      <phase duration="7.33311145511" state="yr"/>
      <phase duration="11.1867434584" state="rG"/>
      <phase duration="7.33311145511" state="ry"/>
   </tlLogic>
   <tlLogic id="1045044750" offset="0" programID="0" type="static">
      <phase duration="29.5325409466" state="Gr"/>
      <phase duration="7.53875789931" state="yr"/>
      <phase duration="29.5325409466" state="rG"/>
      <phase duration="7.53875789931" state="ry"/>
   </tlLogic>
   <tlLogic id="1045044796" offset="0" programID="0" type="static">
      <phase duration="28.7216413556" state="Gr"/>
      <phase duration="3.90153203652" state="yr"/>
      <phase duration="28.7216413556" state="rG"/>
      <phase duration="3.90153203652" state="ry"/>
   </tlLogic>
   <tlLogic id="1045044863" offset="0" programID="0" type="static">
      <phase duration="24.9365083101" state="G"/>
      <phase duration="4.47002444446" state="y"/>
   </tlLogic>
   <tlLogic id="1062771990" offset="0" programID="0" type="static">
      <phase duration="22.5065480498" state="G"/>
      <phase duration="5.83613231982" state="y"/>
   </tlLogic>
   <tlLogic id="1109589987" offset="0" programID="0" type="static">
      <phase duration="30.0206645981" state="GGrr"/>
      <phase duration="4.91072334693" state="yyrr"/>
      <phase duration="30.0206645981" state="rrGG"/>
      <phase duration="4.91072334693" state="rryy"/>
   </tlLogic>
   <tlLogic id="1149210260" offset="0" programID="0" type="static">
      <phase duration="30.8776491104" state="Gr"/>
      <phase duration="5.00943803868" state="yr"/>
      <phase duration="30.8776491104" state="rG"/>
      <phase duration="5.00943803868" state="ry"/>
   </tlLogic>
   <tlLogic id="1150667555" offset="0" programID="0" type="static">
      <phase duration="27.4056775874" state="Gr"/>
      <phase duration="6.49645203007" state="yr"/>
      <phase duration="27.4056775874" state="rG"/>
      <phase duration="6.49645203007" state="ry"/>
   </tlLogic>
   <tlLogic id="1150667558" offset="0" programID="0" type="static">
      <phase duration="15.2553286942" state="Gr"/>
      <phase duration="6.25706021548" state="yr"/>
      <phase duration="15.2553286942" state="rG"/>
      <phase duration="6.25706021548" state="ry"/>
   </tlLogic>
   <tlLogic id="1150667560" offset="0" programID="0" type="static">
      <phase duration="20.5492719789" state="G"/>
      <phase duration="5.16361764224" state="y"/>
   </tlLogic>
   <tlLogic id="1150667568" offset="0" programID="0" type="static"/>
   <tlLogic id="1150667571" offset="0" programID="0" type="static">
      <phase duration="14.2688002695" state="G"/>
      <phase duration="2.16893468984" state="y"/>
   </tlLogic>
   <tlLogic id="1150667586" offset="0" programID="0" type="static">
      <phase duration="11.5962760277" state="G"/>
      <phase duration="2.17288256677" state="y"/>
   </tlLogic>
   <tlLogic id="1150667608" offset="0" programID="0" type="static">
      <phase duration="23.9866359346" state="Gr"/>
      <phase duration="3.60014101619" state="yr"/>
      <phase duration="23.9866359346" state="rG"/>
      <phase duration="3.60014101619" state="ry"/>
   </tlLogic>
   <tlLogic id="1156723779" offset="0" programID="0" type="static">
      <phase duration="28.7112652771" state="GGrrr"/>
      <phase duration="7.34397064185" state="yyrrr"/>
      <phase duration="28.7112652771" state="rrGrr"/>
      <phase duration="7.34397064185" state="rryrr"/>
      <phase duration="28.7112652771" state="rrrGG"/>
      <phase duration="7.34397064185" state="rrryy"/>
   </tlLogic>
   <tlLogic id="1156723839" offset="0" programID="0" type="static">
      <phase duration="15.6977450601" state="Gr"/>
      <phase duration="4.59904088347" state="yr"/>
      <phase duration="15.6977450601" state="rG"/>
      <phase duration="4.59904088347" state="ry"/>
   </tlLogic>
   <tlLogic id="1200892937" offset="0" programID="0" type="static">
      <phase duration="18.1598652192" state="G"/>
      <phase duration="7.08813043216" state="y"/>
   </tlLogic>
   <tlLogic id="1200892960" offset="0" programID="0" type="static">
      <phase duration="29.8945158033" state="Gr"/>
      <phase duration="5.22570212381" state="yr"/>
      <phase duration="29.8945158033" state="rG"/>
      <phase duration="5.22570212381" state="ry"/>
   </tlLogic>
   <tlLogic id="1211136497" offset="0" programID="0" type="static">
      <phase duration="25.2577552953" state="GGrr"/>
      <phase duration="6.27334223558" state="yyrr"/>
      <phase duration="25.2577552953" state="rrGG"/>
      <phase duration="6.27334223558" state="rryy"/>
   </tlLogic>
   <tlLogic id="1211136595" offset="0" programID="0" type="static">
      <phase duration="31.2265109183" state="G"/>
      <phase duration="6.11201304124" state="y"/>
   </tlLogic>
   <tlLogic id="1220020545" offset="0" programID="0" type="static">
      <phase duration="17.419477152" state="GGrrr"/>
      <phase duration="2.32047648392" state="yyrrr"/>
      <phase duration="17.419477152" state="rrGrr"/>
      <phase duration="2.32047648392" state="rryrr"/>
      <phase duration="17.419477152" state="rrrGG"/>
      <phase duration="2.32047648392" state="rrryy"/>
   </tlLogic>
   <tlLogic id="1220020630" offset="0" programID="0" type="static">
      <phase duration="33.4356121179" state="Gr"/>
      <phase duration="2.89474629188" state="yr"/>
      <phase duration="33.4356121179" state="rG"/>
      <phase duration="2.89474629188" state="ry"/>
   </tlLogic>
   <tlLogic id="1229522462" offset="0" programID="0" type="static">
      <phase duration="9.96476092041" state="G"/>
      <phase duration="5.1723336682" state="y"/>
   </tlLogic>
   <tlLogic id="1229522502" offset="0" programID="0" type="static">
      <phase duration="22.0118853689" state="Gr"/>
      <phase duration="7.33913904901" state="yr"/>
      <phase duration="22.0118853689" state="rG"/>
      <phase duration="7.33913904901" state="ry"/>
   </tlLogic>
   <tlLogic id="1229522509" offset="0" programID="0" type="static">
      <phase duration="19.1893592524" state="G"/>
      <phase duration="8.57297637523" state="y"/>
   </tlLogic>
   <tlLogic id="1229522552" offset="0" programID="0" type="static">
      <phase duration="7.43981758645" state="G"/>
      <phase duration="8.51369397025" state="y"/>
   </tlLogic>
   <tlLogic id="1252265070" offset="0" programID="0" type="static"/>
   <tlLogic id="1252285082" offset="0" programID="0" type="static">
      <phase duration="15.2872968789" state="G"/>
      <phase duration="6.54172671585" state="y"/>
   </tlLogic>
   <tlLogic id="1252285085" offset="0" programID="0" type="static">
      <phase duration="23.7071638919" state="Gr"/>
      <phase duration="2.37584857612" state="yr"/>
      <phase duration="23.7071638919" state="rG"/>
      <phase duration="2.37584857612" state="ry"/>
   </tlLogic>
   <tlLogic id="1252285092" offset="0" programID="0" type="static">
      <phase duration="14.2868192315" state="G"/>
      <phase duration="4.91347105896" state="y"/>
   </tlLogic>
   <tlLogic id="1252285107" offset="0" programID="0" type="static">
      <phase duration="29.6077009628" state="G"/>
      <phase duration="7.33350197653" state="y"/>
   </tlLogic>
   <tlLogic id="1252285137" offset="0" programID="0" type="static">
      <phase duration="9.22858365661" state="Gr"/>
      <phase duration="3.3898747128" state="yr"/>
      <phase duration="9.22858365661" state="rG"/>
      <phase duration="3.3898747128" state="ry"/>
   </tlLogic>
   <tlLogic id="1252285140" offset="0" programID="0" type="static">
      <phase duration="18.5536960919" state="Gr"/>
      <phase duration="7.86227931164" state="yr"/>
      <phase duration="18.5536960919" state="rG"/>
      <phase duration="7.86227931164" state="ry"/>
   </tlLogic>
   <tlLogic id="1258258237" offset="0" programID="0" type="static">
      <phase duration="23.869903906" state="GGr"/>
      <phase duration="4.77324736156" state="yyr"/>
      <phase duration="23.869903906" state="rrG"/>
      <phase duration="4.77324736156" state="rry"/>
   </tlLogic>
   <tlLogic id="1271504738" offset="0" programID="0" type="static">
      <phase duration="21.5928198451" state="Gr"/>
      <phase duration="5.419878222" state="yr"/>
      <phase duration="21.5928198451" state="rG"/>
      <phase duration="5.419878222" state="ry"/>
   </tlLogic>
   <tlLogic id="1271504743" offset="0" programID="0" type="static">
      <phase duration="13.6276282782" state="G"/>
      <phase duration="6.00320770132" state="y"/>
   </tlLogic>
   <tlLogic id="1271504755" offset="0" programID="0" type="static">
      <phase duration="19.5401665874" state="GGrrr"/>
      <phase duration="7.78569171508" state="yyrrr"/>
      <phase duration="19.5401665874" state="rrGrr"/>
      <phase duration="7.78569171508" state="rryrr"/>
      <phase duration="19.5401665874" state="rrrGG"/>
      <phase duration="7.78569171508" state="rrryy"/>
   </tlLogic>
   <tlLogic id="1271504756" offset="0" programID="0" type="static">
      <phase duration="22.171511926" state="Gr"/>
      <phase duration="8.90248722463" state="yr"/>
      <phase duration="22.171511926" state="rG"/>
      <phase duration="8.90248722463" state="ry"/>
   </tlLogic>
   <tlLogic id="1271504758" offset="0" programID="0" type="static">
      <phase duration="16.1197450126" state="G"/>
      <phase duration="7.28199778696" state="y"/>
   </tlLogic>
   <tlLogic id="1271504764" offset="0" programID="0" type="static">
      <phase duration="32.2235956091" state="G"/>
      <phase duration="5.58432440907" state="y"/>
   </tlLogic>
   <tlLogic id="1271504767" offset="0" programID="0" type="static">
      <phase duration="22.0110023604" state="G"/>
      <phase duration="3.30811403807" state="y"/>
   </tlLogic>
   <tlLogic id="1271504774" offset="0" programID="0" type="static">
      <phase duration="11.9072609301" state="G"/>
      <phase duration="7.07036800473" state="y"/>
   </tlLogic>
   <tlLogic id="1271504781" offset="0" programID="0" type="static">
      <phase duration="24.4713621409" state="GGrrr"/>
      <phase duration="3.1626315045" state="yyrrr"/>
      <phase duration="24.4713621409" state="rrGrr"/>
      <phase duration="3.1626315045" state="rryrr"/>
      <phase duration="24.4713621409" state="rrrGG"/>
      <phase duration="3.1626315045" state="rrryy"/>
   </tlLogic>
   <tlLogic id="1271504788" offset="0" programID="0" type="static">
      <phase duration="25.0773864346" state="GGrrr"/>
      <phase duration="6.03870220254" state="yyrrr"/>
      <phase duration="25.0773864346" state="rrGGG"/>
      <phase duration="6.03870220254" state="rryyy"/>
   </tlLogic>
   <tlLogic id="1271504795" offset="0" programID="0" type="static">
      <phase duration="15.7697938538" state="G"/>
      <phase duration="4.84038754246" state="y"/>
   </tlLogic>
   <tlLogic id="1271504812" offset="0" programID="0" type="static">
      <phase duration="5.91050769315" state="G"/>
      <phase duration="5.44546256816" state="y"/>
   </tlLogic>
   <tlLogic id="1271504813" offset="0" programID="0" type="static">
      <phase duration="15.7951105811" state="G"/>
      <phase duration="3.52344396417" state="y"/>
   </tlLogic>
   <tlLogic id="1271504815" offset="0" programID="0" type="static">
      <phase duration="18.9085195694" state="Gr"/>
      <phase duration="4.69052838371" state="yr"/>
      <phase duration="18.9085195694" state="rG"/>
      <phase duration="4.69052838371" state="ry"/>
   </tlLogic>
   <tlLogic id="1271504822" offset="0" programID="0" type="static">
      <phase duration="25.6030862993" state="G"/>
      <phase duration="3.60736419699" state="y"/>
   </tlLogic>
   <tlLogic id="1271504824" offset="0" programID="0" type="static">
      <phase duration="23.3685047068" state="G"/>
      <phase duration="7.77649667949" state="y"/>
   </tlLogic>
   <tlLogic id="1271504827" offset="0" programID="0" type="static">
      <phase duration="26.7679507084" state="Gr"/>
      <phase duration="8.65316991534" state="yr"/>
      <phase duration="26.7679507084" state="rG"/>
      <phase duration="8.65316991534" state="ry"/>
   </tlLogic>
   <tlLogic id="1271504828" offset="0" programID="0" type="static">
      <phase duration="26.9491664414" state="GGrrr"/>
      <phase duration="4.46523312029" state="yyrrr"/>
      <phase duration="26.9491664414" state="rrGrr"/>
      <phase duration="4.46523312029" state="rryrr"/>
      <phase duration="26.9491664414" state="rrrGG"/>
      <phase duration="4.46523312029" state="rrryy"/>
   </tlLogic>
   <tlLogic id="1271504829" offset="0" programID="0" type="static">
      <phase duration="24.1088813115" state="Gr"/>
      <phase duration="7.99231054768" state="yr"/>
      <phase duration="24.1088813115" state="rG"/>
      <phase duration="7.99231054768" state="ry"/>
   </tlLogic>
   <tlLogic id="1271504836" offset="0" programID="0" type="static">
      <phase duration="26.7563284069" state="G"/>
      <phase duration="4.91693465105" state="y"/>
   </tlLogic>
   <tlLogic id="1271504838" offset="0" programID="0" type="static">
      <phase duration="10.6120373232" state="GGrrr"/>
      <phase duration="4.55052598403" state="yyrrr"/>
      <phase duration="10.6120373232" state="rrGGr"/>
      <phase duration="4.55052598403" state="rryyr"/>
      <phase duration="10.6120373232" state="rrrrG"/>
      <phase duration="4.55052598403" state="rrrry"/>
   </tlLogic>
   <tlLogic id="1271504841" offset="0" programID="0" type="static">
      <phase duration="20.4760700066" state="G"/>
      <phase duration="9.22460955407" state="y"/>
   </tlLogic>
   <tlLogic id="1271504842" offset="0" programID="0" type="static">
      <phase duration="28.2123494401" state="G"/>
      <phase duration="7.68677900304" state="y"/>
   </tlLogic>
   <tlLogic id="1271504844" offset="0" programID="0" type="static">
      <phase duration="16.1951779778" state="G"/>
      <phase duration="9.01858951597" state="y"/>
   </tlLogic>
   <tlLogic id="1271504849" offset="0" programID="0" type="static">
      <phase duration="13.018852363" state="GGrrr"/>
      <phase duration="4.68088477147" state="yyrrr"/>
      <phase duration="13.018852363" state="rrGrr"/>
      <phase duration="4.68088477147" state="rryrr"/>
      <phase duration="13.018852363" state="rrrGG"/>
      <phase duration="4.68088477147" state="rrryy"/>
   </tlLogic>
   <tlLogic id="1271504851" offset="0" programID="0" type="static">
      <phase duration="21.3384256749" state="G"/>
      <phase duration="5.54423189184" state="y"/>
   </tlLogic>
   <tlLogic id="1271504861" offset="0" programID="0" type="static">
      <phase duration="15.5898773667" state="G"/>
      <phase duration="8.33812265365" state="y"/>
   </tlLogic>
   <tlLogic id="1271504864" offset="0" programID="0" type="static">
      <phase duration="15.6470958493" state="G"/>
      <phase duration="1.63575826223" state="y"/>
   </tlLogic>
   <tlLogic id="1271504866" offset="0" programID="0" type="static">
      <phase duration="18.9318138345" state="G"/>
      <phase duration="8.09613649547" state="y"/>
   </tlLogic>
   <tlLogic id="1271504867" offset="0" programID="0" type="static">
      <phase duration="8.48243517177" state="G"/>
      <phase duration="5.30731261554" state="y"/>
   </tlLogic>
   <tlLogic id="1271504868" offset="0" programID="0" type="static">
      <phase duration="25.4066834926" state="Gr"/>
      <phase duration="5.90571387456" state="yr"/>
      <phase duration="25.4066834926" state="rG"/>
      <phase duration="5.90571387456" state="ry"/>
   </tlLogic>
   <tlLogic id="1271504871" offset="0" programID="0" type="static">
      <phase duration="9.87116859267" state="GGrr"/>
      <phase duration="3.86016322196" state="yyrr"/>
      <phase duration="9.87116859267" state="rrGG"/>
      <phase duration="3.86016322196" state="rryy"/>
   </tlLogic>
   <tlLogic id="1271504873" offset="0" programID="0" type="static">
      <phase duration="9.70901811942" state="GGrrr"/>
      <phase duration="6.4388277759" state="yyrrr"/>
      <phase duration="9.70901811942" state="rrGrr"/>
      <phase duration="6.4388277759" state="rryrr"/>
      <phase duration="9.70901811942" state="rrrGG"/>
      <phase duration="6.4388277759" state="rrryy"/>
   </tlLogic>
   <tlLogic id="1271504874" offset="0" programID="0" type="static">
      <phase duration="34.4261396846" state="G"/>
      <phase duration="7.52788838001" state="y"/>
   </tlLogic>
   <tlLogic id="1271504881" offset="0" programID="0" type="static">
      <phase duration="32.8216423161" state="GGrrr"/>
      <phase duration="5.77032249183" state="yyrrr"/>
      <phase duration="32.8216423161" state="rrGrr"/>
      <phase duration="5.77032249183" state="rryrr"/>
      <phase duration="32.8216423161" state="rrrGG"/>
      <phase duration="5.77032249183" state="rrryy"/>
   </tlLogic>
   <tlLogic id="1271504883" offset="0" programID="0" type="static">
      <phase duration="19.8487873982" state="GGrrr"/>
      <phase duration="2.19995831944" state="yyrrr"/>
      <phase duration="19.8487873982" state="rrGrr"/>
      <phase duration="2.19995831944" state="rryrr"/>
      <phase duration="19.8487873982" state="rrrGG"/>
      <phase duration="2.19995831944" state="rrryy"/>
   </tlLogic>
   <tlLogic id="1271504887" offset="0" programID="0" type="static">
      <phase duration="11.3272161981" state="G"/>
      <phase duration="5.55682917375" state="y"/>
   </tlLogic>
   <tlLogic id="1271504898" offset="0" programID="0" type="static">
      <phase duration="16.0025222141" state="Gr"/>
      <phase duration="4.88942306788" state="yr"/>
      <phase duration="16.0025222141" state="rG"/>
      <phase duration="4.88942306788" state="ry"/>
   </tlLogic>
   <tlLogic id="1271504901" offset="0" programID="0" type="static">
      <phase duration="24.0863385858" state="GGrrr"/>
      <phase duration="4.73305130531" state="yyrrr"/>
      <phase duration="24.0863385858" state="rrGrr"/>
      <phase duration="4.73305130531" state="rryrr"/>
      <phase duration="24.0863385858" state="rrrGG"/>
      <phase duration="4.73305130531" state="rrryy"/>
   </tlLogic>
   <tlLogic id="1271504902" offset="0" programID="0" type="static">
      <phase duration="27.3244563249" state="Gr"/>
      <phase duration="5.59342989217" state="yr"/>
      <phase duration="27.3244563249" state="rG"/>
      <phase duration="5.59342989217" state="ry"/>
   </tlLogic>
   <tlLogic id="1271504905" offset="0" programID="0" type="static">
      <phase duration="16.4982286908" state="G"/>
      <phase duration="8.56261144065" state="y"/>
   </tlLogic>
   <tlLogic id="1271504907" offset="0" programID="0" type="static">
      <phase duration="16.8491526547" state="G"/>
      <phase duration="3.14020781248" state="y"/>
   </tlLogic>
   <tlLogic id="1271504910" offset="0" programID="0" type="static">
      <phase duration="26.1966659771" state="Gr"/>
      <phase duration="7.05843780741" state="yr"/>
      <phase duration="26.1966659771" state="rG"/>
      <phase duration="7.05843780741" state="ry"/>
   </tlLogic>
   <tlLogic id="1271504913" offset="0" programID="0" type="static">
      <phase duration="15.442949271" state="GGrrr"/>
      <phase duration="7.74564005964" state="yyrrr"/>
      <phase duration="15.442949271" state="rrGGr"/>
      <phase duration="7.74564005964" state="rryyr"/>
      <phase duration="15.442949271" state="rrrrG"/>
      <phase duration="7.74564005964" state="rrrry"/>
   </tlLogic>
   <tlLogic id="1271504914" offset="0" programID="0" type="static">
      <phase duration="30.8852789827" state="G"/>
      <phase duration="5.8496039831" state="y"/>
   </tlLogic>
   <tlLogic id="1299369677" offset="0" programID="0" type="static">
      <phase duration="33.5393917663" state="G"/>
      <phase duration="5.41085255861" state="y"/>
   </tlLogic>
   <tlLogic id="1299369684" offset="0" programID="0" type="static">
      <phase duration="17.8338599827" state="G"/>
      <phase duration="4.07049232577" state="y"/>
   </tlLogic>
   <tlLogic id="1299369689" offset="0" programID="0" type="static">
      <phase duration="27.3791396301" state="GGrrr"/>
      <phase duration="6.30871052356" state="yyrrr"/>
      <phase duration="27.3791396301" state="rrGrr"/>
      <phase duration="6.30871052356" state="rryrr"/>
      <phase duration="27.3791396301" state="rrrGG"/>
      <phase duration="6.30871052356" state="rrryy"/>
   </tlLogic>
   <tlLogic id="1299369694" offset="0" programID="0" type="static">
      <phase duration="27.696794832" state="G"/>
      <phase duration="4.95120953605" state="y"/>
   </tlLogic>
   <tlLogic id="1299369699" offset="0" programID="0" type="static">
      <phase duration="18.9824078228" state="G"/>
      <phase duration="6.37207058842" state="y"/>
   </tlLogic>
   <tlLogic id="1299369701" offset="0" programID="0" type="static">
      <phase duration="35.4527892621" state="GGrrr"/>
      <phase duration="7.6029985641" state="yyrrr"/>
      <phase duration="35.4527892621" state="rrGrr"/>
      <phase duration="7.6029985641" state="rryrr"/>
      <phase duration="35.4527892621" state="rrrGG"/>
      <phase duration="7.6029985641" state="rrryy"/>
   </tlLogic>
   <tlLogic id="1312440659" offset="0" programID="0" type="static">
      <phase duration="16.6286413173" state="GGrrr"/>
      <phase duration="7.81551936885" state="yyrrr"/>
      <phase duration="16.6286413173" state="rrGrr"/>
      <phase duration="7.81551936885" state="rryrr"/>
      <phase duration="16.6286413173" state="rrrGG"/>
      <phase duration="7.81551936885" state="rrryy"/>
   </tlLogic>
   <tlLogic id="1312440715" offset="0" programID="0" type="static">
      <phase duration="15.3035543682" state="Gr"/>
      <phase duration="6.8054177366" state="yr"/>
      <phase duration="15.3035543682" state="rG"/>
      <phase duration="6.8054177366" state="ry"/>
   </tlLogic>
   <tlLogic id="1312812204" offset="0" programID="0" type="static">
      <phase duration="11.6491844208" state="G"/>
      <phase duration="5.7619157993" state="y"/>
   </tlLogic>
   <tlLogic id="1353566368" offset="0" programID="0" type="static">
      <phase duration="27.4679896956" state="G"/>
      <phase duration="7.65140957769" state="y"/>
   </tlLogic>
   <tlLogic id="1360932319" offset="0" programID="0" type="static"/>
   <tlLogic id="1366801190" offset="0" programID="0" type="static"/>
   <tlLogic id="1366801194" offset="0" programID="0" type="static"/>
   <tlLogic id="1366801200" offset="0" programID="0" type="static">
      <phase duration="20.7396440279" state="Gr"/>
      <phase duration="3.81910864105" state="yr"/>
      <phase duration="20.7396440279" state="rG"/>
      <phase duration="3.81910864105" state="ry"/>
   </tlLogic>
   <tlLogic id="1366801204" offset="0" programID="0" type="static">
      <phase duration="16.6812487008" state="G"/>
      <phase duration="4.79439374313" state="y"/>
   </tlLogic>
   <tlLogic id="1366801217" offset="0" programID="0" type="static">
      <phase duration="8.58388358637" state="G"/>
      <phase duration="8.40970997407" state="y"/>
   </tlLogic>
   <tlLogic id="1366801267" offset="0" programID="0" type="static">
      <phase duration="35.2602894858" state="Grr"/>
      <phase duration="6.79966482567" state="yrr"/>
      <phase duration="35.2602894858" state="rGr"/>
      <phase duration="6.79966482567" state="ryr"/>
      <phase duration="35.2602894858" state="rrG"/>
      <phase duration="6.79966482567" state="rry"/>
   </tlLogic>
   <tlLogic id="1492679678" offset="0" programID="0" type="static">
      <phase duration="24.9998733117" state="Gr"/>
      <phase duration="9.20350415419" state="yr"/>
      <phase duration="24.9998733117" state="rG"/>
      <phase duration="9.20350415419" state="ry"/>
   </tlLogic>
   <tlLogic id="1492679723" offset="0" programID="0" type="static">
      <phase duration="20.0357903271" state="GGrrr"/>
      <phase duration="3.28909282891" state="yyrrr"/>
      <phase duration="20.0357903271" state="rrGrr"/>
      <phase duration="3.28909282891" state="rryrr"/>
      <phase duration="20.0357903271" state="rrrGG"/>
      <phase duration="3.28909282891" state="rrryy"/>
   </tlLogic>
   <tlLogic id="1492679726" offset="0" programID="0" type="static">
      <phase duration="10.1649993782" state="G"/>
      <phase duration="4.6995846712" state="y"/>
   </tlLogic>
   <tlLogic id="1492679729" offset="0" programID="0" type="static">
      <phase duration="19.7039957677" state="G"/>
      <phase duration="6.55346955406" state="y"/>
   </tlLogic>
   <tlLogic id="1492679731" offset="0" programID="0" type="static">
      <phase duration="4.77656387584" state="Gr"/>
      <phase duration="6.92772035938" state="yr"/>
      <phase duration="4.77656387584" state="rG"/>
      <phase duration="6.92772035938" state="ry"/>
   </tlLogic>
   <tlLogic id="1492679733" offset="0" programID="0" type="static">
      <phase duration="32.8784707486" state="Gr"/>
      <phase duration="4.46462328243" state="yr"/>
      <phase duration="32.8784707486" state="rG"/>
      <phase duration="4.46462328243" state="ry"/>
   </tlLogic>
   <tlLogic id="1492679741" offset="0" programID="0" type="static">
      <phase duration="29.3079164613" state="G"/>
      <phase duration="4.73643222701" state="y"/>
   </tlLogic>
   <tlLogic id="1492679753" offset="0" programID="0" type="static">
      <phase duration="18.2110259406" state="G"/>
      <phase duration="5.56586990502" state="y"/>
   </tlLogic>
   <tlLogic id="1492729097" offset="0" programID="0" type="static">
      <phase duration="21.6434066174" state="Gr"/>
      <phase duration="6.05261786951" state="yr"/>
      <phase duration="21.6434066174" state="rG"/>
      <phase duration="6.05261786951" state="ry"/>
   </tlLogic>
   <tlLogic id="1492729111" offset="0" programID="0" type="static">
      <phase duration="27.8300299902" state="G"/>
      <phase duration="6.24959443683" state="y"/>
   </tlLogic>
   <tlLogic id="1492802032" offset="0" programID="0" type="static">
      <phase duration="15.9580314133" state="G"/>
      <phase duration="3.97924541522" state="y"/>
   </tlLogic>