<?xml version="1.0" ?>
<tlLogics>
   <tlLogic id="1000099468" offset="0" programID="0" type="static">
      <phase duration="17.2634280136" state="G"/>
      <phase duration="8.64784746125" state="y"/>
   </tlLogic>
   <tlLogic id="1000099475" offset="0" programID="0" type="static">
      <phase duration="26.9024825502" state="GG"/>
      <phase duration="4.22453779788" state="yy"/>
   </tlLogic>
   <tlLogic id="1000099490" offset="0" programID="0" type="static">
      <phase duration="12.8844970282" state="Gr"/>
      <phase duration="5.55286286117" state="yr"/>
      <phase duration="12.8844970282" state="rG"/>
      <phase duration="5.55286286117" state="ry"/>
   </tlLogic>
   <tlLogic id="1000099503" offset="0" programID="0" type="static">
      <phase duration="25.876734926" state="GGGrrrrrrrr"/>
      <phase duration="7.29864091775" state="yyyrrrrrrrr"/>
      <phase duration="25.876734926" state="rrrGGGrrrrr"/>
      <phase duration="7.29864091775" state="rrryyyrrrrr"/>
      <phase duration="25.876734926" state="rrrrrrGGGGG"/>
      <phase duration="7.29864091775" state="rrrrrryyyyy"/>
   </tlLogic>
   <tlLogic id="1000099553" offset="0" programID="0" type="static">
      <phase duration="24.2336741784" state="Gr"/>
      <phase duration="4.05200745697" state="yr"/>
      <phase duration="24.2336741784" state="rG"/>
      <phase duration="4.05200745697" state="ry"/>
   </tlLogic>
   <tlLogic id="1000099576" offset="0" programID="0" type="static">
      <phase duration="32.8021585414" state="Grrrr"/>
      <phase duration="3.67718237992" state="yrrrr"/>
      <phase duration="32.8021585414" state="rGGrr"/>
      <phase duration="3.67718237992" state="ryyrr"/>
      <phase duration="32.8021585414" state="rrrGG"/>
      <phase duration="3.67718237992" state="rrryy"/>
   </tlLogic>
   <tlLogic id="1000099591" offset="0" programID="0" type="static">
      <phase duration="17.5798958114" state="GGrr"/>
      <phase duration="2.74433861285" state="yyrr"/>
      <phase duration="17.5798958114" state="rrGG"/>
      <phase duration="2.74433861285" state="rryy"/>
   </tlLogic>
   <tlLogic id="1000099650" offset="0" programID="0" type="static">
      <phase duration="19.8903406864" state="G"/>
      <phase duration="1.25691212763" state="y"/>
   </tlLogic>
   <tlLogic id="1000099724" offset="0" programID="0" type="static">
      <phase duration="8.63806077134" state="Grrr"/>
      <phase duration="7.75560300197" state="yrrr"/>
      <phase duration="8.63806077134" state="rGGG"/>
      <phase duration="7.75560300197" state="ryyy"/>
   </tlLogic>
   <tlLogic id="1012321567" offset="0" programID="0" type="static">
      <phase duration="17.2626410975" state="Gr"/>
      <phase duration="2.72467415997" state="yr"/>
      <phase duration="17.2626410975" state="rG"/>
      <phase duration="2.72467415997" state="ry"/>
   </tlLogic>
   <tlLogic id="1012321573" offset="0" programID="0" type="static">
      <phase duration="17.1603762448" state="Gr"/>
      <phase duration="6.71552497525" state="yr"/>
      <phase duration="17.1603762448" state="rG"/>
      <phase duration="6.71552497525" state="ry"/>
   </tlLogic>
   <tlLogic id="1028832536" offset="0" programID="0" type="static"/>
   <tlLogic id="1037290822" offset="0" programID="0" type="static">
      <phase duration="16.7921990387" state="GGrr"/>
      <phase duration="6.86440493294" state="yyrr"/>
      <phase duration="16.7921990387" state="rrGG"/>
      <phase duration="6.86440493294" state="rryy"/>
   </tlLogic>
   <tlLogic id="1040964328" offset="0" programID="0" type="static">
      <phase duration="8.51187432256" state="Gr"/>
      <phase duration="2.16460273618" state="yr"/>
      <phase duration="8.51187432256" state="rG"/>
      <phase duration="2.16460273618" state="ry"/>
   </tlLogic>
   <tlLogic id="1045044796" offset="0" programID="0" type="static">
      <phase duration="26.9322202881" state="Gr"/>
      <phase duration="5.68620878261" state="yr"/>
      <phase duration="26.9322202881" state="rG"/>
      <phase duration="5.68620878261" state="ry"/>
   </tlLogic>
   <tlLogic id="1062771951" offset="0" programID="0" type="static">
      <phase duration="1.94625204352" state="GGrr"/>
      <phase duration="6.98485295186" state="yyrr"/>
      <phase duration="1.94625204352" state="rrGG"/>
      <phase duration="6.98485295186" state="rryy"/>
   </tlLogic>
   <tlLogic id="1109589987" offset="0" programID="0" type="static">
      <phase duration="30.9224606154" state="GGrr"/>
      <phase duration="2.00830864143" state="yyrr"/>
      <phase duration="30.9224606154" state="rrGG"/>
      <phase duration="2.00830864143" state="rryy"/>
   </tlLogic>
   <tlLogic id="1123630986" offset="0" programID="0" type="static">
      <phase duration="13.4795895179" state="G"/>
      <phase duration="6.67315526268" state="y"/>
   </tlLogic>
   <tlLogic id="1125127500" offset="0" programID="0" type="static">
      <phase duration="19.0548047868" state="GG"/>
      <phase duration="4.81948051666" state="yy"/>
   </tlLogic>
   <tlLogic id="1150667552" offset="0" programID="0" type="static">
      <phase duration="21.7288077955" state="Gr"/>
      <phase duration="7.38857125146" state="yr"/>
      <phase duration="21.7288077955" state="rG"/>
      <phase duration="7.38857125146" state="ry"/>
   </tlLogic>
   <tlLogic id="1150667555" offset="0" programID="0" type="static">
      <phase duration="20.4238367882" state="Gr"/>
      <phase duration="4.79143699276" state="yr"/>
      <phase duration="20.4238367882" state="rG"/>
      <phase duration="4.79143699276" state="ry"/>
   </tlLogic>
   <tlLogic id="1150667558" offset="0" programID="0" type="static">
      <phase duration="30.5986737583" state="Gr"/>
      <phase duration="5.20676730712" state="yr"/>
      <phase duration="30.5986737583" state="rG"/>
      <phase duration="5.20676730712" state="ry"/>
   </tlLogic>
   <tlLogic id="1150667560" offset="0" programID="0" type="static">
      <phase duration="25.3647228922" state="G"/>
      <phase duration="2.39659783417" state="y"/>
   </tlLogic>
   <tlLogic id="1150667568" offset="0" programID="0" type="static"/>
   <tlLogic id="1150667603" offset="0" programID="0" type="static">
      <phase duration="4.59597294576" state="Gr"/>
      <phase duration="7.64546084231" state="yr"/>
      <phase duration="4.59597294576" state="rG"/>
      <phase duration="7.64546084231" state="ry"/>
   </tlLogic>
   <tlLogic id="1150667604" offset="0" programID="0" type="static">
      <phase duration="16.2045023935" state="Gr"/>
      <phase duration="9.81986111361" state="yr"/>
      <phase duration="16.2045023935" state="rG"/>
      <phase duration="9.81986111361" state="ry"/>
   </tlLogic>
   <tlLogic id="1150667622" offset="0" programID="0" type="static">
      <phase duration="6.20582546081" state="G"/>
      <phase duration="6.31611196758" state="y"/>
   </tlLogic>
   <tlLogic id="1157698150" offset="0" programID="0" type="static">
      <phase duration="16.3728569025" state="G"/>
      <phase duration="6.52552013287" state="y"/>
   </tlLogic>
   <tlLogic id="1200892937" offset="0" programID="0" type="static">
      <phase duration="7.40359919486" state="G"/>
      <phase duration="3.57821981731" state="y"/>
   </tlLogic>
   <tlLogic id="1200892960" offset="0" programID="0" type="static">
      <phase duration="30.953529809" state="Gr"/>
      <phase duration="6.19720073455" state="yr"/>
      <phase duration="30.953529809" state="rG"/>
      <phase duration="6.19720073455" state="ry"/>
   </tlLogic>
   <tlLogic id="1201745377" offset="0" programID="0" type="static">
      <phase duration="20.2793297787" state="G"/>
      <phase duration="5.27003486862" state="y"/>
   </tlLogic>
   <tlLogic id="1211136497" offset="0" programID="0" type="static">
      <phase duration="15.4343958944" state="GGrr"/>
      <phase duration="6.99605415836" state="yyrr"/>
      <phase duration="15.4343958944" state="rrGG"/>
      <phase duration="6.99605415836" state="rryy"/>
   </tlLogic>
   <tlLogic id="1211136870" offset="0" programID="0" type="static">
      <phase duration="20.2726984918" state="GGrr"/>
      <phase duration="3.28199805048" state="yyrr"/>
      <phase duration="20.2726984918" state="rrGG"/>
      <phase duration="3.28199805048" state="rryy"/>
   </tlLogic>
   <tlLogic id="1220020505" offset="0" programID="0" type="static">
      <phase duration="21.3792401828" state="G"/>
      <phase duration="5.35038152658" state="y"/>
   </tlLogic>
   <tlLogic id="1220020592" offset="0" programID="0" type="static">
      <phase duration="20.3238209396" state="Gr"/>
      <phase duration="6.87635663416" state="yr"/>
      <phase duration="20.3238209396" state="rG"/>
      <phase duration="6.87635663416" state="ry"/>
   </tlLogic>
   <tlLogic id="1220020607" offset="0" programID="0" type="static">
      <phase duration="16.9237386801" state="GGrr"/>
      <phase duration="1.48086483705" state="yyrr"/>
      <phase duration="16.9237386801" state="rrGG"/>
      <phase duration="1.48086483705" state="rryy"/>
   </tlLogic>
   <tlLogic id="1220020630" offset="0" programID="0" type="static">
      <phase duration="13.7110703732" state="Gr"/>
      <phase duration="4.96859850383" state="yr"/>
      <phase duration="13.7110703732" state="rG"/>
      <phase duration="4.96859850383" state="ry"/>
   </tlLogic>
   <tlLogic id="1220020656" offset="0" programID="0" type="static">
      <phase duration="31.3262106617" state="GGrr"/>
      <phase duration="7.31271385121" state="yyrr"/>
      <phase duration="31.3262106617" state="rrGG"/>
      <phase duration="7.31271385121" state="rryy"/>
   </tlLogic>
   <tlLogic id="1220020673" offset="0" programID="0" type="static">
      <phase duration="14.2947577534" state="GGGrrrrrr"/>
      <phase duration="3.38369971226" state="yyyrrrrrr"/>
      <phase duration="14.2947577534" state="rrrGGGrrr"/>
      <phase duration="3.38369971226" state="rrryyyrrr"/>
      <phase duration="14.2947577534" state="rrrrrrGGG"/>
      <phase duration="3.38369971226" state="rrrrrryyy"/>
   </tlLogic>
   <tlLogic id="1220020679" offset="0" programID="0" type="static">
      <phase duration="12.2697335659" state="GGrr"/>
      <phase duration="6.79588170436" state="yyrr"/>
      <phase duration="12.2697335659" state="rrGG"/>
      <phase duration="6.79588170436" state="rryy"/>
   </tlLogic>
   <tlLogic id="1229522509" offset="0" programID="0" type="static">
      <phase duration="20.6405910774" state="G"/>
      <phase duration="3.94239387102" state="y"/>
   </tlLogic>
   <tlLogic id="1229522552" offset="0" programID="0" type="static">
      <phase duration="17.2829185377" state="G"/>
      <phase duration="4.89387708972" state="y"/>
   </tlLogic>
   <tlLogic id="1252285079" offset="0" programID="0" type="static">
      <phase duration="2.79278740978" state="Gr"/>
      <phase duration="2.47364491307" state="yr"/>
      <phase duration="2.79278740978" state="rG"/>
      <phase duration="2.47364491307" state="ry"/>
   </tlLogic>
   <tlLogic id="1252285085" offset="0" programID="0" type="static">
      <phase duration="17.6639060883" state="Gr"/>
      <phase duration="8.57085137663" state="yr"/>
      <phase duration="17.6639060883" state="rG"/>
      <phase duration="8.57085137663" state="ry"/>
   </tlLogic>
   <tlLogic id="1252285087" offset="0" programID="0" type="static"/>
   <tlLogic id="1252285092" offset="0" programID="0" type="static">
      <phase duration="16.5902142427" state="G"/>
      <phase duration="9.52536976112" state="y"/>
   </tlLogic>
   <tlLogic id="1252285133" offset="0" programID="0" type="static">
      <phase duration="19.288035188" state="Gr"/>
      <phase duration="8.43039087514" state="yr"/>
      <phase duration="19.288035188" state="rG"/>
      <phase duration="8.43039087514" state="ry"/>
   </tlLogic>
   <tlLogic id="1252285138" offset="0" programID="0" type="static">
      <phase duration="26.2822881672" state="G"/>
      <phase duration="2.38263403258" state="y"/>
   </tlLogic>
   <tlLogic id="1258258237" offset="0" programID="0" type="static">
      <phase duration="22.1130741259" state="GGr"/>
      <phase duration="3.90535037501" state="yyr"/>
      <phase duration="22.1130741259" state="rrG"/>
      <phase duration="3.90535037501" state="rry"/>
   </tlLogic>
   <tlLogic id="1271504743" offset="0" programID="0" type="static">
      <phase duration="2.80025213477" state="G"/>
      <phase duration="4.12935615369" state="y"/>
   </tlLogic>
   <tlLogic id="1271504750" offset="0" programID="0" type="static">
      <phase duration="25.7645908525" state="G"/>
      <phase duration="7.65738268992" state="y"/>
   </tlLogic>
   <tlLogic id="1271504755" offset="0" programID="0" type="static">
      <phase duration="15.2216796462" state="GGrrr"/>
      <phase duration="2.44339806717" state="yyrrr"/>
      <phase duration="15.2216796462" state="rrGrr"/>
      <phase duration="2.44339806717" state="rryrr"/>
      <phase duration="15.2216796462" state="rrrGG"/>
      <phase duration="2.44339806717" state="rrryy"/>
   </tlLogic>
   <tlLogic id="1271504757" offset="0" programID="0" type="static">
      <phase duration="19.6034409731" state="GGrrr"/>
      <phase duration="1.32245542907" state="yyrrr"/>
      <phase duration="19.6034409731" state="rrGrr"/>
      <phase duration="1.32245542907" state="rryrr"/>
      <phase duration="19.6034409731" state="rrrGG"/>
      <phase duration="1.32245542907" state="rrryy"/>
   </tlLogic>
   <tlLogic id="1271504762" offset="0" programID="0" type="static">
      <phase duration="19.6163473609" state="G"/>
      <phase duration="3.90059098346" state="y"/>
   </tlLogic>
   <tlLogic id="1271504763" offset="0" programID="0" type="static">
      <phase duration="22.0425450998" state="G"/>
      <phase duration="7.29003466557" state="y"/>
   </tlLogic>
   <tlLogic id="1271504764" offset="0" programID="0" type="static">
      <phase duration="19.392306843" state="G"/>
      <phase duration="5.89798814569" state="y"/>
   </tlLogic>
   <tlLogic id="1271504768" offset="0" programID="0" type="static">
      <phase duration="34.6657269752" state="Gr"/>
      <phase duration="2.62455988311" state="yr"/>
      <phase duration="34.6657269752" state="rG"/>
      <phase duration="2.62455988311" state="ry"/>
   </tlLogic>
   <tlLogic id="1271504778" offset="0" programID="0" type="static">
      <phase duration="28.4247420076" state="G"/>
      <phase duration="6.85201837751" state="y"/>
   </tlLogic>
   <tlLogic id="1271504797" offset="0" programID="0" type="static">
      <phase duration="10.1939162912" state="Gr"/>
      <phase duration="8.4475833139" state="yr"/>
      <phase duration="10.1939162912" state="rG"/>
      <phase duration="8.4475833139" state="ry"/>
   </tlLogic>
   <tlLogic id="1271504803" offset="0" programID="0" type="static">
      <phase duration="13.222486109" state="G"/>
      <phase duration="9.2664884503" state="y"/>
   </tlLogic>
   <tlLogic id="1271504812" offset="0" programID="0" type="static">
      <phase duration="35.9240878181" state="G"/>
      <phase duration="7.68755707736" state="y"/>
   </tlLogic>
   <tlLogic id="1271504815" offset="0" programID="0" type="static">
      <phase duration="5.81229768052" state="Gr"/>
      <phase duration="4.59962519773" state="yr"/>
      <phase duration="5.81229768052" state="rG"/>
      <phase duration="4.59962519773" state="ry"/>
   </tlLogic>
   <tlLogic id="1271504817" offset="0" programID="0" type="static">
      <phase duration="15.2339974209" state="G"/>
      <phase duration="4.69070027239" state="y"/>
   </tlLogic>
   <tlLogic id="1271504823" offset="0" programID="0" type="static">
      <phase duration="12.1619564751" state="G"/>
      <phase duration="6.37504722538" state="y"/>
   </tlLogic>
   <tlLogic id="1271504824" offset="0" programID="0" type="static">
      <phase duration="13.4780211365" state="G"/>
      <phase duration="7.09630835079" state="y"/>
   </tlLogic>
   <tlLogic id="1271504827" offset="0" programID="0" type="static">
      <phase duration="30.379802842" state="Gr"/>
      <phase duration="8.98346732187" state="yr"/>
      <phase duration="30.379802842" state="rG"/>
      <phase duration="8.98346732187" state="ry"/>
   </tlLogic>
   <tlLogic id="1271504828" offset="0" programID="0" type="static">
      <phase duration="7.16797375313" state="GGrrr"/>
      <phase duration="2.89001321207" state="yyrrr"/>
      <phase duration="7.16797375313" state="rrGrr"/>
      <phase duration="2.89001321207" state="rryrr"/>
      <phase duration="7.16797375313" state="rrrGG"/>
      <phase duration="2.89001321207" state="rrryy"/>
   </tlLogic>
   <tlLogic id="1271504829" offset="0" programID="0" type="static">
      <phase duration="14.5697718129" state="Gr"/>
      <phase duration="7.09715701737" state="yr"/>
      <phase duration="14.5697718129" state="rG"/>
      <phase duration="7.09715701737" state="ry"/>
   </tlLogic>
   <tlLogic id="1271504834" offset="0" programID="0" type="static">
      <phase duration="31.2276012335" state="G"/>
      <phase duration="6.6734987688" state="y"/>
   </tlLogic>
   <tlLogic id="1271504841" offset="0" programID="0" type="static">
      <phase duration="25.1461754214" state="G"/>
      <phase duration="7.59018413581" state="y"/>
   </tlLogic>
   <tlLogic id="1271504842" offset="0" programID="0" type="static">
      <phase duration="10.0520388012" state="G"/>
      <phase duration="3.34939490829" state="y"/>
   </tlLogic>
   <tlLogic id="1271504845" offset="0" programID="0" type="static">
      <phase duration="4.63146696089" state="G"/>
      <phase duration="4.80300901077" state="y"/>
   </tlLogic>
   <tlLogic id="1271504855" offset="0" programID="0" type="static">
      <phase duration="10.7105851471" state="Gr"/>
      <phase duration="4.52116143669" state="yr"/>
      <phase duration="10.7105851471" state="rG"/>
      <phase duration="4.52116143669" state="ry"/>
   </tlLogic>
   <tlLogic id="1271504858" offset="0" programID="0" type="static">
      <phase duration="35.9249802092" state="G"/>
      <phase duration="9.23394934285" state="y"/>
   </tlLogic>
   <tlLogic id="1271504861" offset="0" programID="0" type="static">
      <phase duration="19.8017068957" state="G"/>
      <phase duration="4.74936160725" state="y"/>
   </tlLogic>
   <tlLogic id="1271504863" offset="0" programID="0" type="static">
      <phase duration="13.9824120407" state="G"/>
      <phase duration="4.13336718869" state="y"/>
   </tlLogic>
   <tlLogic id="1271504868" offset="0" programID="0" type="static">
      <phase duration="21.6357486929" state="Gr"/>
      <phase duration="4.26499168355" state="yr"/>
      <phase duration="21.6357486929" state="rG"/>
      <phase duration="4.26499168355" state="ry"/>
   </tlLogic>
   <tlLogic id="1271504871" offset="0" programID="0" type="static">
      <phase duration="21.5578220379" state="GGrr"/>
      <phase duration="9.55229345416" state="yyrr"/>
      <phase duration="21.5578220379" state="rrGG"/>
      <phase duration="9.55229345416" state="rryy"/>
   </tlLogic>
   <tlLogic id="1271504875" offset="0" programID="0" type="static">
      <phase duration="1.9218710434" state="G"/>
      <phase duration="2.06615298519" state="y"/>
   </tlLogic>
   <tlLogic id="1271504878" offset="0" programID="0" type="static">
      <phase duration="19.3774247467" state="G"/>
      <phase duration="6.62945562623" state="y"/>
   </tlLogic>
   <tlLogic id="1271504883" offset="0" programID="0" type="static">
      <phase duration="35.248876661" state="GGrrr"/>
      <phase duration="9.41995414179" state="yyrrr"/>
      <phase duration="35.248876661" state="rrGrr"/>
      <phase duration="9.41995414179" state="rryrr"/>
      <phase duration="35.248876661" state="rrrGG"/>
      <phase duration="9.41995414179" state="rrryy"/>
   </tlLogic>
   <tlLogic id="1271504889" offset="0" programID="0" type="static">
      <phase duration="11.8904603864" state="Gr"/>
      <phase duration="3.08938628585" state="yr"/>
      <phase duration="11.8904603864" state="rG"/>
      <phase duration="3.08938628585" state="ry"/>
   </tlLogic>
   <tlLogic id="1271504894" offset="0" programID="0" type="static">
      <phase duration="15.098350136" state="G"/>
      <phase duration="6.35717949934" state="y"/>
   </tlLogic>
   <tlLogic id="1271504895" offset="0" programID="0" type="static">
      <phase duration="16.4283546549" state="GGrrr"/>
      <phase duration="3.6800593002" state="yyrrr"/>
      <phase duration="16.4283546549" state="rrGrr"/>
      <phase duration="3.6800593002" state="rryrr"/>
      <phase duration="16.4283546549" state="rrrGG"/>
      <phase duration="3.6800593002" state="rrryy"/>
   </tlLogic>
   <tlLogic id="1271504904" offset="0" programID="0" type="static">
      <phase duration="18.1273984347" state="Grr"/>
      <phase duration="4.51038450197" state="yrr"/>
      <phase duration="18.1273984347" state="rGG"/>
      <phase duration="4.51038450197" state="ryy"/>
   </tlLogic>
   <tlLogic id="1271504905" offset="0" programID="0" type="static">
      <phase duration="19.2621703723" state="G"/>
      <phase duration="4.58637305301" state="y"/>
   </tlLogic>
   <tlLogic id="1271504911" offset="0" programID="0" type="static">
      <phase duration="23.818595146" state="G"/>
      <phase duration="2.45651514568" state="y"/>
   </tlLogic>
   <tlLogic id="1271504913" offset="0" programID="0" type="static">
      <phase duration="6.22992486537" state="GGrrr"/>
      <phase duration="3.12431741698" state="yyrrr"/>
      <phase duration="6.22992486537" state="rrGGr"/>
      <phase duration="3.12431741698" state="rryyr"/>
      <phase duration="6.22992486537" state="rrrrG"/>
      <phase duration="3.12431741698" state="rrrry"/>
   </tlLogic>
   <tlLogic id="1271504918" offset="0" programID="0" type="static">
      <phase duration="29.295307409" state="G"/>
      <phase duration="7.57150028165" state="y"/>
   </tlLogic>
   <tlLogic id="1299369677" offset="0" programID="0" type="static">
      <phase duration="13.8998957645" state="G"/>
      <phase duration="8.20557830849" state="y"/>
   </tlLogic>
   <tlLogic id="1299369678" offset="0" programID="0" type="static">
      <phase duration="3.65135668026" state="G"/>
      <phase duration="5.11264622977" state="y"/>
   </tlLogic>
   <tlLogic id="1299369684" offset="0" programID="0" type="static">
      <phase duration="8.18324495059" state="G"/>
      <phase duration="6.64512507876" state="y"/>
   </tlLogic>
   <tlLogic id="1299369691" offset="0" programID="0" type="static">
      <phase duration="26.237266009" state="Gr"/>
      <phase duration="2.99007813541" state="yr"/>
      <phase duration="26.237266009" state="rG"/>
      <phase duration="2.99007813541" state="ry"/>
   </tlLogic>
   <tlLogic id="1299369697" offset="0" programID="0" type="static">
      <phase duration="2.92622643054" state="G"/>
      <phase duration="6.47225844334" state="y"/>
   </tlLogic>
   <tlLogic id="1299369701" offset="0" programID="0" type="static">
      <phase duration="20.8140416174" state="GGrrr"/>
      <phase duration="8.63457309715" state="yyrrr"/>
      <phase duration="20.8140416174" state="rrGrr"/>
      <phase duration="8.63457309715" state="rryrr"/>
      <phase duration="20.8140416174" state="rrrGG"/>
      <phase duration="8.63457309715" state="rrryy"/>
   </tlLogic>
   <tlLogic id="1312440651" offset="0" programID="0" type="static">
      <phase duration="11.6341021011" state="G"/>
      <phase duration="2.11416103055" state="y"/>
   </tlLogic>
   <tlLogic id="1312440715" offset="0" programID="0" type="static">
      <phase duration="21.4861578936" state="Gr"/>
      <phase duration="4.83973280844" state="yr"/>
      <phase duration="21.4861578936" state="rG"/>
      <phase duration="4.83973280844" state="ry"/>
   </tlLogic>
   <tlLogic id="1312812204" offset="0" programID="0" type="static">
      <phase duration="29.8800336651" state="G"/>
      <phase duration="3.57072914274" state="y"/>
   </tlLogic>
   <tlLogic id="1366801190" offset="0" programID="0" type="static"/>
   <tlLogic id="1366801200" offset="0" programID="0" type="static">
      <phase duration="29.1993198854" state="Gr"/>
      <phase duration="3.07220623422" state="yr"/>
      <phase duration="29.1993198854" state="rG"/>
      <phase duration="3.07220623422" state="ry"/>
   </tlLogic>
   <tlLogic id="1366801204" offset="0" programID="0" type="static">
      <phase duration="23.8995298279" state="G"/>
      <phase duration="6.92251993641" state="y"/>
   </tlLogic>
   <tlLogic id="1366801217" offset="0" programID="0" type="static">
      <phase duration="14.8509722374" state="G"/>
      <phase duration="6.61955873209" state="y"/>
   </tlLogic>
   <tlLogic id="1366801262" offset="0" programID="0" type="static">
      <phase duration="10.0448964062" state="G"/>
      <phase duration="2.64156434399" state="y"/>
   </tlLogic>
   <tlLogic id="1366801267" offset="0" programID="0" type="static">
      <phase duration="19.4229430759" state="Grr"/>
      <phase duration="6.06646159821" state="yrr"/>
      <phase duration="19.4229430759" state="rGr"/>
      <phase duration="6.06646159821" state="ryr"/>
      <phase duration="19.4229430759" state="rrG"/>
      <phase duration="6.06646159821" state="rry"/>
   </tlLogic>
   <tlLogic id="1492679675" offset="0" programID="0" type="static">
      <phase duration="33.80313519" state="Gr"/>
      <phase duration="5.92376305241" state="yr"/>
      <phase duration="33.80313519" state="rG"/>
      <phase duration="5.92376305241" state="ry"/>
   </tlLogic>
   <tlLogic id="1492679678" offset="0" programID="0" type="static">
      <phase duration="13.0898633493" state="Gr"/>
      <phase duration="3.71040330936" state="yr"/>
      <phase duration="13.0898633493" state="rG"/>
      <phase duration="3.71040330936" state="ry"/>
   </tlLogic>
   <tlLogic id="1492679687" offset="0" programID="0" type="static">
      <phase duration="26.7160713453" state="Gr"/>
      <phase duration="4.94950365449" state="yr"/>
      <phase duration="26.7160713453" state="rG"/>
      <phase duration="4.94950365449" state="ry"/>
   </tlLogic>
   <tlLogic id="1492679696" offset="0" programID="0" type="static">
      <phase duration="18.6210822192" state="Gr"/>
      <phase duration="4.32844167325" state="yr"/>
      <phase duration="18.6210822192" state="rG"/>
      <phase duration="4.32844167325" state="ry"/>
   </tlLogic>
   <tlLogic id="1492679714" offset="0" programID="0" type="static">
      <phase duration="16.4202553263" state="Gr"/>
      <phase duration="9.0769572747" state="yr"/>
      <phase duration="16.4202553263" state="rG"/>
      <phase duration="9.0769572747" state="ry"/>
   </tlLogic>
   <tlLogic id="1492679723" offset="0" programID="0" type="static">
      <phase duration="10.3851867156" state="GGrrr"/>
      <phase duration="7.92978396228" state="yyrrr"/>
      <phase duration="10.3851867156" state="rrGrr"/>
      <phase duration="7.92978396228" state="rryrr"/>
      <phase duration="10.3851867156" state="rrrGG"/>
      <phase duration="7.92978396228" state="rrryy"/>
   </tlLogic>
   <tlLogic id="1492679731" offset="0" programID="0" type="static">
      <phase duration="29.2299009101" state="Gr"/>
      <phase duration="6.43329222339" state="yr"/>
      <phase duration="29.2299009101" state="rG"/>
      <phase duration="6.43329222339" state="ry"/>
   </tlLogic>
   <tlLogic id="1492679739" offset="0" programID="0" type="static">
      <phase duration="13.7434133503" state="G"/>
      <phase duration="4.64968695866" state="y"/>
   </tlLogic>
   <tlLogic id="1492679740" offset="0" programID="0" type="static">
      <phase duration="31.6118808525" state="G"/>
      <phase duration="7.40037884864" state="y"/>
   </tlLogic>
   <tlLogic id="1492679741" offset="0" programID="0" type="static">
      <phase duration="23.762331769" state="G"/>
      <phase duration="8.43289029344" state="y"/>
   </tlLogic>
   <tlLogic id="1492679749" offset="0" programID="0" type="static">
      <phase duration="23.0086899741" state="GGrrr"/>
      <phase duration="8.78721404741" state="yyrrr"/>
      <phase duration="23.0086899741" state="rrGGr"/>
      <phase duration="8.78721404741" state="rryyr"/>
      <phase duration="23.0086899741" state="rrrrG"/>
      <phase duration="8.78721404741" state="rrrry"/>
   </tlLogic>
   <tlLogic id="1492679755" offset="0" programID="0" type="static">
      <phase duration="21.5448948661" state="G"/>
      <phase duration="7.93659586746" state="y"/>
   </tlLogic>
   <tlLogic id="1492729097" offset="0" programID="0" type="static">
      <phase duration="33.5368721723" state="Gr"/>
      <phase duration="5.94731379571" state="yr"/>
      <phase duration="33.5368721723" state="rG"/>
      <phase duration="5.94731379571" state="ry"/>
   </tlLogic>
   <tlLogic id="1492729111" offset="0" programID="0" type="static">
      <phase duration="19.1437384433" state="G"/>
      <phase duration="9.08967375533" state="y"/>
   </tlLogic>
   <tlLogic id="1492802032" offset="0" programID="0" type="static">
      <phase duration="18.7883132224" state="G"/>
      <phase duration="4.00453513141" state="y"/>
   </tlLogic>
   <tlLogic id="1492802066" offset="0" programID="0" type="static">
      <phase duration="2.8907785265" state="Gr"/>
      <phase duration="3.60497366585" state="yr"/>
      <phase duration="2.8907785265" state="rG"/>
      <phase duration="3.60497366585" state="ry"/>
   </tlLogic>
   <tlLogic id="1492802067" offset="0" programID="0" type="static">
      <phase duration="23.6649349497" state="G"/>
      <phase duration="7.29268693675" state="y"/>
   </tlLogic>
   <tlLogic id="1492802068" offset="0" programID="0" type="static">
      <phase duration="23.8503313883" state="Gr"/>
      <phase duration="3.01317481588" state="yr"/>
      <phase duration="23.8503313883" state="rG"/>
      <phase duration="3.01317481588" state="ry"/>