<?xml version="1.0" ?>
<tlLogics>
   <tlLogic id="1000099503" offset="0" programID="0" type="static">
      <phase duration="16.886966342" state="GGGrrrrrrrr"/>
      <phase duration="9.91597868871" state="yyyrrrrrrrr"/>
      <phase duration="16.886966342" state="rrrGGGrrrrr"/>
      <phase duration="9.91597868871" state="rrryyyrrrrr"/>
      <phase duration="16.886966342" state="rrrrrrGGGGG"/>
      <phase duration="9.91597868871" state="rrrrrryyyyy"/>
   </tlLogic>
   <tlLogic id="1000099607" offset="0" programID="0" type="static">
      <phase duration="32.2757384042" state="GGr"/>
      <phase duration="8.13515514881" state="yyr"/>
      <phase duration="32.2757384042" state="rrG"/>
      <phase duration="8.13515514881" state="rry"/>
   </tlLogic>
   <tlLogic id="1000099650" offset="0" programID="0" type="static">
      <phase duration="17.7961733968" state="G"/>
      <phase duration="2.0213310976" state="y"/>
   </tlLogic>
   <tlLogic id="1000099651" offset="0" programID="0" type="static">
      <phase duration="27.2439395325" state="GGrrrr"/>
      <phase duration="8.7906970407" state="yyrrrr"/>
      <phase duration="27.2439395325" state="rrGGrr"/>
      <phase duration="8.7906970407" state="rryyrr"/>
      <phase duration="27.2439395325" state="rrrrGG"/>
      <phase duration="8.7906970407" state="rrrryy"/>
   </tlLogic>
   <tlLogic id="1000099724" offset="0" programID="0" type="static">
      <phase duration="15.7867154515" state="Grrr"/>
      <phase duration="6.96249880324" state="yrrr"/>
      <phase duration="15.7867154515" state="rGGG"/>
      <phase duration="6.96249880324" state="ryyy"/>
   </tlLogic>
   <tlLogic id="1000099788" offset="0" programID="0" type="static">
      <phase duration="27.5975431357" state="GGrr"/>
      <phase duration="4.6037026452" state="yyrr"/>
      <phase duration="27.5975431357" state="rrGG"/>
      <phase duration="4.6037026452" state="rryy"/>
   </tlLogic>
   <tlLogic id="1012321573" offset="0" programID="0" type="static">
      <phase duration="18.3625052858" state="Gr"/>
      <phase duration="6.19490905002" state="yr"/>
      <phase duration="18.3625052858" state="rG"/>
      <phase duration="6.19490905002" state="ry"/>
   </tlLogic>
   <tlLogic id="1037290822" offset="0" programID="0" type="static">
      <phase duration="32.0120185582" state="GGrr"/>
      <phase duration="5.85510946512" state="yyrr"/>
      <phase duration="32.0120185582" state="rrGG"/>
      <phase duration="5.85510946512" state="rryy"/>
   </tlLogic>
   <tlLogic id="1037290889" offset="0" programID="0" type="static">
      <phase duration="23.8013742512" state="GGrr"/>
      <phase duration="6.92495707916" state="yyrr"/>
      <phase duration="23.8013742512" state="rrGG"/>
      <phase duration="6.92495707916" state="rryy"/>
   </tlLogic>
   <tlLogic id="1045044715" offset="0" programID="0" type="static">
      <phase duration="19.4427451799" state="Gr"/>
      <phase duration="4.2311074287" state="yr"/>
      <phase duration="19.4427451799" state="rG"/>
      <phase duration="4.2311074287" state="ry"/>
   </tlLogic>
   <tlLogic id="1045044750" offset="0" programID="0" type="static">
      <phase duration="26.5016144306" state="Gr"/>
      <phase duration="7.75111990017" state="yr"/>
      <phase duration="26.5016144306" state="rG"/>
      <phase duration="7.75111990017" state="ry"/>
   </tlLogic>
   <tlLogic id="1045044796" offset="0" programID="0" type="static">
      <phase duration="29.6092784781" state="Gr"/>
      <phase duration="5.69687332522" state="yr"/>
      <phase duration="29.6092784781" state="rG"/>
      <phase duration="5.69687332522" state="ry"/>
   </tlLogic>
   <tlLogic id="1045044863" offset="0" programID="0" type="static">
      <phase duration="28.4259961474" state="G"/>
      <phase duration="5.98427516933" state="y"/>
   </tlLogic>
   <tlLogic id="1109589987" offset="0" programID="0" type="static">
      <phase duration="35.9647011489" state="GGrr"/>
      <phase duration="5.79843917749" state="yyrr"/>
      <phase duration="35.9647011489" state="rrGG"/>
      <phase duration="5.79843917749" state="rryy"/>
   </tlLogic>
   <tlLogic id="1149210260" offset="0" programID="0" type="static">
      <phase duration="21.9062268206" state="Gr"/>
      <phase duration="6.91139060002" state="yr"/>
      <phase duration="21.9062268206" state="rG"/>
      <phase duration="6.91139060002" state="ry"/>
   </tlLogic>
   <tlLogic id="1150667540" offset="0" programID="0" type="static">
      <phase duration="25.9589843544" state="G"/>
      <phase duration="5.40913434569" state="y"/>
   </tlLogic>
   <tlLogic id="1150667555" offset="0" programID="0" type="static">
      <phase duration="27.2997654689" state="Gr"/>
      <phase duration="7.54352678933" state="yr"/>
      <phase duration="27.2997654689" state="rG"/>
      <phase duration="7.54352678933" state="ry"/>
   </tlLogic>
   <tlLogic id="1150667558" offset="0" programID="0" type="static">
      <phase duration="15.0679748425" state="Gr"/>
      <phase duration="5.18447357918" state="yr"/>
      <phase duration="15.0679748425" state="rG"/>
      <phase duration="5.18447357918" state="ry"/>
   </tlLogic>
   <tlLogic id="1150667560" offset="0" programID="0" type="static">
      <phase duration="24.0881358933" state="G"/>
      <phase duration="5.87774438324" state="y"/>
   </tlLogic>
   <tlLogic id="1150667568" offset="0" programID="0" type="static"/>
   <tlLogic id="1150667571" offset="0" programID="0" type="static">
      <phase duration="18.4194192584" state="G"/>
      <phase duration="3.25888927783" state="y"/>
   </tlLogic>
   <tlLogic id="1150667608" offset="0" programID="0" type="static">
      <phase duration="30.808958512" state="Gr"/>
      <phase duration="8.82603840107" state="yr"/>
      <phase duration="30.808958512" state="rG"/>
      <phase duration="8.82603840107" state="ry"/>
   </tlLogic>
   <tlLogic id="1150667618" offset="0" programID="0" type="static">
      <phase duration="34.70539319" state="G"/>
      <phase duration="3.03196794312" state="y"/>
   </tlLogic>
   <tlLogic id="1156723779" offset="0" programID="0" type="static">
      <phase duration="34.2119887584" state="GGrrr"/>
      <phase duration="7.69826352828" state="yyrrr"/>
      <phase duration="34.2119887584" state="rrGrr"/>
      <phase duration="7.69826352828" state="rryrr"/>
      <phase duration="34.2119887584" state="rrrGG"/>
      <phase duration="7.69826352828" state="rrryy"/>
   </tlLogic>
   <tlLogic id="1156723839" offset="0" programID="0" type="static">
      <phase duration="24.53232226" state="Gr"/>
      <phase duration="4.99729342834" state="yr"/>
      <phase duration="24.53232226" state="rG"/>
      <phase duration="4.99729342834" state="ry"/>
   </tlLogic>
   <tlLogic id="1200892937" offset="0" programID="0" type="static">
      <phase duration="18.1639524885" state="G"/>
      <phase duration="9.94478880275" state="y"/>
   </tlLogic>
   <tlLogic id="1200892960" offset="0" programID="0" type="static">
      <phase duration="35.8682428469" state="Gr"/>
      <phase duration="9.48672598362" state="yr"/>
      <phase duration="35.8682428469" state="rG"/>
      <phase duration="9.48672598362" state="ry"/>
   </tlLogic>
   <tlLogic id="1201745399" offset="0" programID="0" type="static"/>
   <tlLogic id="1211136497" offset="0" programID="0" type="static">
      <phase duration="24.4024066704" state="GGrr"/>
      <phase duration="6.49649698254" state="yyrr"/>
      <phase duration="24.4024066704" state="rrGG"/>
      <phase duration="6.49649698254" state="rryy"/>
   </tlLogic>
   <tlLogic id="1211136870" offset="0" programID="0" type="static">
      <phase duration="29.3181175842" state="GGrr"/>
      <phase duration="4.88253473091" state="yyrr"/>
      <phase duration="29.3181175842" state="rrGG"/>
      <phase duration="4.88253473091" state="rryy"/>
   </tlLogic>
   <tlLogic id="1220020545" offset="0" programID="0" type="static">
      <phase duration="29.2845333611" state="GGrrr"/>
      <phase duration="6.26430044034" state="yyrrr"/>
      <phase duration="29.2845333611" state="rrGrr"/>
      <phase duration="6.26430044034" state="rryrr"/>
      <phase duration="29.2845333611" state="rrrGG"/>
      <phase duration="6.26430044034" state="rrryy"/>
   </tlLogic>
   <tlLogic id="1220020656" offset="0" programID="0" type="static">
      <phase duration="29.8250128238" state="GGrr"/>
      <phase duration="4.89331012058" state="yyrr"/>
      <phase duration="29.8250128238" state="rrGG"/>
      <phase duration="4.89331012058" state="rryy"/>
   </tlLogic>
   <tlLogic id="1229522462" offset="0" programID="0" type="static">
      <phase duration="9.00514086484" state="G"/>
      <phase duration="5.55898865899" state="y"/>
   </tlLogic>
   <tlLogic id="1229522502" offset="0" programID="0" type="static">
      <phase duration="15.6714395954" state="Gr"/>
      <phase duration="6.69684491933" state="yr"/>
      <phase duration="15.6714395954" state="rG"/>
      <phase duration="6.69684491933" state="ry"/>
   </tlLogic>
   <tlLogic id="1229522509" offset="0" programID="0" type="static">
      <phase duration="24.9037309607" state="G"/>
      <phase duration="9.04247266595" state="y"/>
   </tlLogic>
   <tlLogic id="1252265070" offset="0" programID="0" type="static"/>
   <tlLogic id="1252285085" offset="0" programID="0" type="static">
      <phase duration="10.5619812049" state="Gr"/>
      <phase duration="5.81078101033" state="yr"/>
      <phase duration="10.5619812049" state="rG"/>
      <phase duration="5.81078101033" state="ry"/>
   </tlLogic>
   <tlLogic id="1252285087" offset="0" programID="0" type="static"/>
   <tlLogic id="1252285092" offset="0" programID="0" type="static">
      <phase duration="16.9466810272" state="G"/>
      <phase duration="5.05828739125" state="y"/>
   </tlLogic>
   <tlLogic id="1252285093" offset="0" programID="0" type="static">
      <phase duration="18.2668712269" state="Gr"/>
      <phase duration="2.39095077437" state="yr"/>
      <phase duration="18.2668712269" state="rG"/>
      <phase duration="2.39095077437" state="ry"/>
   </tlLogic>
   <tlLogic id="1252285107" offset="0" programID="0" type="static">
      <phase duration="23.1200623026" state="G"/>
      <phase duration="4.27429321303" state="y"/>
   </tlLogic>
   <tlLogic id="1252285140" offset="0" programID="0" type="static">
      <phase duration="13.1973689264" state="Gr"/>
      <phase duration="9.99536678587" state="yr"/>
      <phase duration="13.1973689264" state="rG"/>
      <phase duration="9.99536678587" state="ry"/>
   </tlLogic>
   <tlLogic id="1271504738" offset="0" programID="0" type="static">
      <phase duration="23.9999470772" state="Gr"/>
      <phase duration="5.97513698975" state="yr"/>
      <phase duration="23.9999470772" state="rG"/>
      <phase duration="5.97513698975" state="ry"/>
   </tlLogic>
   <tlLogic id="1271504743" offset="0" programID="0" type="static">
      <phase duration="8.50047533435" state="G"/>
      <phase duration="7.48323026071" state="y"/>
   </tlLogic>
   <tlLogic id="1271504747" offset="0" programID="0" type="static">
      <phase duration="16.5360547422" state="Gr"/>
      <phase duration="4.41457188512" state="yr"/>
      <phase duration="16.5360547422" state="rG"/>
      <phase duration="4.41457188512" state="ry"/>
   </tlLogic>
   <tlLogic id="1271504750" offset="0" programID="0" type="static">
      <phase duration="25.9304655891" state="G"/>
      <phase duration="7.00850945964" state="y"/>
   </tlLogic>
   <tlLogic id="1271504755" offset="0" programID="0" type="static">
      <phase duration="31.3772896576" state="GGrrr"/>
      <phase duration="2.46694735201" state="yyrrr"/>
      <phase duration="31.3772896576" state="rrGrr"/>
      <phase duration="2.46694735201" state="rryrr"/>
      <phase duration="31.3772896576" state="rrrGG"/>
      <phase duration="2.46694735201" state="rrryy"/>
   </tlLogic>
   <tlLogic id="1271504756" offset="0" programID="0" type="static">
      <phase duration="11.1392238417" state="Gr"/>
      <phase duration="5.73769452113" state="yr"/>
      <phase duration="11.1392238417" state="rG"/>
      <phase duration="5.73769452113" state="ry"/>
   </tlLogic>
   <tlLogic id="1271504758" offset="0" programID="0" type="static">
      <phase duration="14.4188555756" state="G"/>
      <phase duration="7.04911283486" state="y"/>
   </tlLogic>
   <tlLogic id="1271504764" offset="0" programID="0" type="static">
      <phase duration="27.0012647258" state="G"/>
      <phase duration="5.56948823015" state="y"/>
   </tlLogic>
   <tlLogic id="1271504767" offset="0" programID="0" type="static">
      <phase duration="16.0706198348" state="G"/>
      <phase duration="5.93132259038" state="y"/>
   </tlLogic>
   <tlLogic id="1271504781" offset="0" programID="0" type="static">
      <phase duration="29.7038452384" state="GGrrr"/>
      <phase duration="6.0801983813" state="yyrrr"/>
      <phase duration="29.7038452384" state="rrGrr"/>
      <phase duration="6.0801983813" state="rryrr"/>
      <phase duration="29.7038452384" state="rrrGG"/>
      <phase duration="6.0801983813" state="rrryy"/>
   </tlLogic>
   <tlLogic id="1271504783" offset="0" programID="0" type="static">
      <phase duration="9.61360920094" state="Gr"/>
      <phase duration="4.56085390118" state="yr"/>
      <phase duration="9.61360920094" state="rG"/>
      <phase duration="4.56085390118" state="ry"/>
   </tlLogic>
   <tlLogic id="1271504788" offset="0" programID="0" type="static">
      <phase duration="27.7334849241" state="GGrrr"/>
      <phase duration="5.99492969438" state="yyrrr"/>
      <phase duration="27.7334849241" state="rrGGG"/>
      <phase duration="5.99492969438" state="rryyy"/>
   </tlLogic>
   <tlLogic id="1271504797" offset="0" programID="0" type="static">
      <phase duration="21.3016628137" state="Gr"/>
      <phase duration="8.21320239655" state="yr"/>
      <phase duration="21.3016628137" state="rG"/>
      <phase duration="8.21320239655" state="ry"/>
   </tlLogic>
   <tlLogic id="1271504814" offset="0" programID="0" type="static">
      <phase duration="14.8911517605" state="G"/>
      <phase duration="6.86210187341" state="y"/>
   </tlLogic>
   <tlLogic id="1271504815" offset="0" programID="0" type="static">
      <phase duration="21.2396848942" state="Gr"/>
      <phase duration="5.94063603876" state="yr"/>
      <phase duration="21.2396848942" state="rG"/>
      <phase duration="5.94063603876" state="ry"/>
   </tlLogic>
   <tlLogic id="1271504822" offset="0" programID="0" type="static">
      <phase duration="31.4675928692" state="G"/>
      <phase duration="2.04424538958" state="y"/>
   </tlLogic>
   <tlLogic id="1271504824" offset="0" programID="0" type="static">
      <phase duration="7.56552389866" state="G"/>
      <phase duration="9.98906006812" state="y"/>
   </tlLogic>
   <tlLogic id="1271504827" offset="0" programID="0" type="static">
      <phase duration="28.7853750708" state="Gr"/>
      <phase duration="9.34395786102" state="yr"/>
      <phase duration="28.7853750708" state="rG"/>
      <phase duration="9.34395786102" state="ry"/>
   </tlLogic>
   <tlLogic id="1271504829" offset="0" programID="0" type="static">
      <phase duration="16.1834115002" state="Gr"/>
      <phase duration="8.01146294218" state="yr"/>
      <phase duration="16.1834115002" state="rG"/>
      <phase duration="8.01146294218" state="ry"/>
   </tlLogic>
   <tlLogic id="1271504834" offset="0" programID="0" type="static">
      <phase duration="18.8913135126" state="G"/>
      <phase duration="4.15913842747" state="y"/>
   </tlLogic>
   <tlLogic id="1271504836" offset="0" programID="0" type="static">
      <phase duration="32.4335783688" state="G"/>
      <phase duration="3.61091966493" state="y"/>
   </tlLogic>
   <tlLogic id="1271504838" offset="0" programID="0" type="static">
      <phase duration="18.9586601533" state="GGrrr"/>
      <phase duration="5.0659705125" state="yyrrr"/>
      <phase duration="18.9586601533" state="rrGGr"/>
      <phase duration="5.0659705125" state="rryyr"/>
      <phase duration="18.9586601533" state="rrrrG"/>
      <phase duration="5.0659705125" state="rrrry"/>
   </tlLogic>
   <tlLogic id="1271504841" offset="0" programID="0" type="static">
      <phase duration="26.157552806" state="G"/>
      <phase duration="9.12158716542" state="y"/>
   </tlLogic>
   <tlLogic id="1271504844" offset="0" programID="0" type="static">
      <phase duration="20.5564408604" state="G"/>
      <phase duration="8.2033440156" state="y"/>
   </tlLogic>
   <tlLogic id="1271504849" offset="0" programID="0" type="static">
      <phase duration="16.7544708516" state="GGrrr"/>
      <phase duration="4.8468822052" state="yyrrr"/>
      <phase duration="16.7544708516" state="rrGrr"/>
      <phase duration="4.8468822052" state="rryrr"/>
      <phase duration="16.7544708516" state="rrrGG"/>
      <phase duration="4.8468822052" state="rrryy"/>
   </tlLogic>
   <tlLogic id="1271504851" offset="0" programID="0" type="static">
      <phase duration="11.0566681448" state="G"/>
      <phase duration="9.76167046331" state="y"/>
   </tlLogic>
   <tlLogic id="1271504852" offset="0" programID="0" type="static">
      <phase duration="17.186865147" state="G"/>
      <phase duration="6.35716837263" state="y"/>
   </tlLogic>
   <tlLogic id="1271504861" offset="0" programID="0" type="static">
      <phase duration="20.0865567541" state="G"/>
      <phase duration="7.33224205004" state="y"/>
   </tlLogic>
   <tlLogic id="1271504864" offset="0" programID="0" type="static">
      <phase duration="18.1296058765" state="G"/>
      <phase duration="7.67849194861" state="y"/>
   </tlLogic>
   <tlLogic id="1271504866" offset="0" programID="0" type="static">
      <phase duration="19.2799331219" state="G"/>
      <phase duration="9.85058622782" state="y"/>
   </tlLogic>
   <tlLogic id="1271504867" offset="0" programID="0" type="static">
      <phase duration="8.8397161453" state="G"/>
      <phase duration="5.67963042807" state="y"/>
   </tlLogic>
   <tlLogic id="1271504870" offset="0" programID="0" type="static">
      <phase duration="26.0356194917" state="G"/>
      <phase duration="9.8127473604" state="y"/>
   </tlLogic>
   <tlLogic id="1271504871" offset="0" programID="0" type="static">
      <phase duration="5.09396226031" state="GGrr"/>
      <phase duration="3.97866350623" state="yyrr"/>
      <phase duration="5.09396226031" state="rrGG"/>
      <phase duration="3.97866350623" state="rryy"/>
   </tlLogic>
   <tlLogic id="1271504872" offset="0" programID="0" type="static">
      <phase duration="19.4737356724" state="G"/>
      <phase duration="5.46893191966" state="y"/>
   </tlLogic>
   <tlLogic id="1271504873" offset="0" programID="0" type="static">
      <phase duration="14.7950491465" state="GGrrr"/>
      <phase duration="6.75355090833" state="yyrrr"/>
      <phase duration="14.7950491465" state="rrGrr"/>
      <phase duration="6.75355090833" state="rryrr"/>
      <phase duration="14.7950491465" state="rrrGG"/>
      <phase duration="6.75355090833" state="rrryy"/>
   </tlLogic>
   <tlLogic id="1271504874" offset="0" programID="0" type="static">
      <phase duration="36.6144920128" state="G"/>
      <phase duration="6.65323985863" state="y"/>
   </tlLogic>
   <tlLogic id="1271504875" offset="0" programID="0" type="static">
      <phase duration="25.5023383589" state="G"/>
      <phase duration="3.58292201515" state="y"/>
   </tlLogic>
   <tlLogic id="1271504881" offset="0" programID="0" type="static">
      <phase duration="29.4563633576" state="GGrrr"/>
      <phase duration="4.23264915055" state="yyrrr"/>
      <phase duration="29.4563633576" state="rrGrr"/>
      <phase duration="4.23264915055" state="rryrr"/>
      <phase duration="29.4563633576" state="rrrGG"/>
      <phase duration="4.23264915055" state="rrryy"/>
   </tlLogic>
   <tlLogic id="1271504887" offset="0" programID="0" type="static">
      <phase duration="10.8915679277" state="G"/>
      <phase duration="9.21251768284" state="y"/>
   </tlLogic>
   <tlLogic id="1271504888" offset="0" programID="0" type="static">
      <phase duration="25.4160567617" state="G"/>
      <phase duration="7.55200128655" state="y"/>
   </tlLogic>
   <tlLogic id="1271504898" offset="0" programID="0" type="static">
      <phase duration="16.2272128736" state="Gr"/>
      <phase duration="7.70725315069" state="yr"/>
      <phase duration="16.2272128736" state="rG"/>
      <phase duration="7.70725315069" state="ry"/>
   </tlLogic>
   <tlLogic id="1271504899" offset="0" programID="0" type="static">
      <phase duration="10.5763126115" state="G"/>
      <phase duration="4.69918815874" state="y"/>
   </tlLogic>
   <tlLogic id="1271504902" offset="0" programID="0" type="static">
      <phase duration="32.6696298282" state="Gr"/>
      <phase duration="5.95053773966" state="yr"/>
      <phase duration="32.6696298282" state="rG"/>
      <phase duration="5.95053773966" state="ry"/>
   </tlLogic>
   <tlLogic id="1271504904" offset="0" programID="0" type="static">
      <phase duration="24.9164063938" state="Grr"/>
      <phase duration="4.6617049069" state="yrr"/>
      <phase duration="24.9164063938" state="rGG"/>
      <phase duration="4.6617049069" state="ryy"/>
   </tlLogic>
   <tlLogic id="1271504905" offset="0" programID="0" type="static">
      <phase duration="15.2611926718" state="G"/>
      <phase duration="9.58436724323" state="y"/>
   </tlLogic>
   <tlLogic id="1271504908" offset="0" programID="0" type="static">
      <phase duration="17.7705754937" state="G"/>
      <phase duration="2.37077235641" state="y"/>
   </tlLogic>
   <tlLogic id="1271504910" offset="0" programID="0" type="static">
      <phase duration="39.0609622053" state="Gr"/>
      <phase duration="8.73326596114" state="yr"/>
      <phase duration="39.0609622053" state="rG"/>
      <phase duration="8.73326596114" state="ry"/>
   </tlLogic>
   <tlLogic id="1271504911" offset="0" programID="0" type="static">
      <phase duration="31.4693611035" state="G"/>
      <phase duration="7.9542384435" state="y"/>
   </tlLogic>
   <tlLogic id="1271504914" offset="0" programID="0" type="static">
      <phase duration="29.8268867514" state="G"/>
      <phase duration="3.10998728084" state="y"/>
   </tlLogic>
   <tlLogic id="1298727142" offset="0" programID="0" type="static">
      <phase duration="5.37946111159" state="Gr"/>
      <phase duration="6.5746600877" state="yr"/>
      <phase duration="5.37946111159" state="rG"/>
      <phase duration="6.5746600877" state="ry"/>
   </tlLogic>
   <tlLogic id="1299369677" offset="0" programID="0" type="static">
      <phase duration="21.8977698084" state="G"/>
      <phase duration="8.02921858479" state="y"/>
   </tlLogic>
   <tlLogic id="1299369684" offset="0" programID="0" type="static">
      <phase duration="18.1968763542" state="G"/>
      <phase duration="5.61359247211" state="y"/>
   </tlLogic>
   <tlLogic id="1299369686" offset="0" programID="0" type="static">
      <phase duration="13.3208527201" state="G"/>
      <phase duration="8.33547319579" state="y"/>
   </tlLogic>
   <tlLogic id="1299369689" offset="0" programID="0" type="static">
      <phase duration="33.7173058367" state="GGrrr"/>
      <phase duration="7.43045018838" state="yyrrr"/>
      <phase duration="33.7173058367" state="rrGrr"/>
      <phase duration="7.43045018838" state="rryrr"/>
      <phase duration="33.7173058367" state="rrrGG"/>
      <phase duration="7.43045018838" state="rrryy"/>
   </tlLogic>
   <tlLogic id="1299369694" offset="0" programID="0" type="static">
      <phase duration="26.3274119921" state="G"/>
      <phase duration="3.45222449576" state="y"/>
   </tlLogic>
   <tlLogic id="1299369699" offset="0" programID="0" type="static">
      <phase duration="18.9319437216" state="G"/>
      <phase duration="6.97675482949" state="y"/>
   </tlLogic>
   <tlLogic id="1299369701" offset="0" programID="0" type="static">
      <phase duration="38.1969864529" state="GGrrr"/>
      <phase duration="9.8299099453" state="yyrrr"/>
      <phase duration="38.1969864529" state="rrGrr"/>
      <phase duration="9.8299099453" state="rryrr"/>
      <phase duration="38.1969864529" state="rrrGG"/>
      <phase duration="9.8299099453" state="rrryy"/>
   </tlLogic>
   <tlLogic id="1312812204" offset="0" programID="0" type="static">
      <phase duration="21.3271610375" state="G"/>
      <phase duration="5.86789860943" state="y"/>
   </tlLogic>
   <tlLogic id="1366801185" offset="0" programID="0" type="static">
      <phase duration="26.6143313306" state="G"/>
      <phase duration="3.12951969722" state="y"/>
   </tlLogic>
   <tlLogic id="1366801190" offset="0" programID="0" type="static"/>
   <tlLogic id="1366801200" offset="0" programID="0" type="static">
      <phase duration="16.1376033578" state="Gr"/>
      <phase duration="5.56477564092" state="yr"/>
      <phase duration="16.1376033578" state="rG"/>
      <phase duration="5.56477564092" state="ry"/>
   </tlLogic>
   <tlLogic id="1366801204" offset="0" programID="0" type="static">
      <phase duration="28.2598215873" state="G"/>
      <phase duration="5.43416857138" state="y"/>
   </tlLogic>
   <tlLogic id="1366801217" offset="0" programID="0" type="static">
      <phase duration="9.02716992623" state="G"/>
      <phase duration="9.45669958788" state="y"/>
   </tlLogic>
   <tlLogic id="1366801221" offset="0" programID="0" type="static">
      <phase duration="21.9413748163" state="Gr"/>
      <phase duration="7.66186420035" state="yr"/>
      <phase duration="21.9413748163" state="rG"/>
      <phase duration="7.66186420035" state="ry"/>
   </tlLogic>
   <tlLogic id="1366801262" offset="0" programID="0" type="static">
      <phase duration="24.5109479655" state="G"/>
      <phase duration="4.5749839297" state="y"/>
   </tlLogic>
   <tlLogic id="1366801267" offset="0" programID="0" type="static">
      <phase duration="31.5319044948" state="Grr"/>
      <phase duration="9.81045859975" state="yrr"/>
      <phase duration="31.5319044948" state="rGr"/>
      <phase duration="9.81045859975" state="ryr"/>
      <phase duration="31.5319044948" state="rrG"/>
      <phase duration="9.81045859975" state="rry"/>
   </tlLogic>
   <tlLogic id="1492679681" offset="0" programID="0" type="static">
      <phase duration="29.3354296374" state="G"/>
      <phase duration="6.58123427244" state="y"/>
   </tlLogic>
   <tlLogic id="1492679726" offset="0" programID="0" type="static">
      <phase duration="12.0500242945" state="G"/>
      <phase duration="8.27633467739" state="y"/>
   </tlLogic>
   <tlLogic id="1492679729" offset="0" programID="0" type="static">
      <phase duration="25.3563214912" state="G"/>
      <phase duration="9.0841099746" state="y"/>
   </tlLogic>
   <tlLogic id="1492679731" offset="0" programID="0" type="static">
      <phase duration="6.74909129572" state="Gr"/>
      <phase duration="4.85050035661" state="yr"/>
      <phase duration="6.74909129572" state="rG"/>
      <phase duration="4.85050035661" state="ry"/>
   </tlLogic>
   <tlLogic id="1492679753" offset="0" programID="0" type="static">
      <phase duration="20.6080927699" state="G"/>
      <phase duration="3.5226678336" state="y"/>
   </tlLogic>
   <tlLogic id="1492729111" offset="0" programID="0" type="static">
      <phase duration="22.0449997941" state="G"/>
      <phase duration="6.2744908558" state="y"/>
   </tlLogic>
   <tlLogic id="1492802032" offset="0" programID="0" type="static">
      <phase duration="15.959994983" state="G"/>
      <phase duration="3.95005525625" state="y"/>
   </tlLogic>
   <tlLogic id="1492802033" offset="0" programID="0" type="static">
      <phase duration="37.0777686048" state="GGrrr"/>
      <phase duration="7.9775876633" state="yyrrr"/>
      <phase duration="37.0777686048" state="rrGrr"/>
      <phase duration="7.9775876633" state="rryrr"/>
      <phase duration="37.0777686048" state="rrrGG"/>
      <phase duration="7.9775876633" state="rrryy"/>
   </tlLogic>
   <tlLogic id="1492802065" offset="0" programID="0" type="static">
      <phase duration="13.4752154415" state="G"/>
      <phase duration="1.63460333592" state="y"/>
   </tlLogic>
   <tlLogic id="1492802066" offset="0" programID="0" type="static">
      <phase duration="18.1005945873" state="Gr"/>
      <phase duration="8.07239011146" state="yr"/>
      <phase duration="18.1005945873" state="rG"/>
      <phase duration="8.07239011146" state="ry"/>
   </tlLogic>
   <tlLogic id="1492802067" offset="0" programID="0" type="static">
      <phase duration="14.4240869159" state="G"/>
      <phase duration="8.57096899224" state="y"/>
   </tlLogic>
   <tlLogic id="1492802092" offset="0" programID="0" type="static">
      <phase duration="28.2296325834" state="G"/>
      <phase duration="9.32520137874" state="y"/>
   </tlLogic>
   <tlLogic id="1492802093" offset="0" programID="0" type="static">
      <phase duration="26.445985509" state="GGrrr"/>
      <phase duration="9.22817961456" state="yyrrr"/>
      <phase duration="26.445985509" state="rrGGG"/>
      <phase duration="9.22817961456" state="rryyy"/>
   </tlLogic>
   <tlLogic id="1492802125" offset="0" programID="0" type="static">
      <phase duration="21.867445565" state="Gr"/>
      <phase duration="8.11455462134" state="yr"/>
      <phase duration="21.867445565" state="rG"/>
      <phase duration="8.11455462134" state="ry"/>
   </tlLogic>
   <tlLogic id="1520433227" offset="0" programID="0" type="static">
      <phase duration="14.7943955523" state="Gr"/>
      <phase duration="6.69833910336" state="yr"/>
      <phase duration="14.7943955523" state="rG"/>
      <phase duration="6.69833910336" state="ry"/>
   </tlLogic>
   <tlLogic id="1523162665" offset="0" programID="0" type="static">
      <phase duration="22.4672214912" state="G"/>
      <phase duration="5.66120242916" state="y"/>
   </tlLogic>