<?xml version="1.0" ?>
<tlLogics>
   <tlLogic id="1000099503" offset="0" programID="0" type="static">
      <phase duration="32.7783858032" state="GGGrrrrrrrr"/>
      <phase duration="2.08503667754" state="yyyrrrrrrrr"/>
      <phase duration="32.7783858032" state="rrrGGGrrrrr"/>
      <phase duration="2.08503667754" state="rrryyyrrrrr"/>
      <phase duration="32.7783858032" state="rrrrrrGGGGG"/>
      <phase duration="2.08503667754" state="rrrrrryyyyy"/>
   </tlLogic>
   <tlLogic id="1000099520" offset="0" programID="0" type="static">
      <phase duration="15.9454226312" state="G"/>
      <phase duration="4.64456182505" state="y"/>
   </tlLogic>
   <tlLogic id="1000099551" offset="0" programID="0" type="static">
      <phase duration="34.5978873047" state="G"/>
      <phase duration="2.45584274358" state="y"/>
   </tlLogic>
   <tlLogic id="1000099553" offset="0" programID="0" type="static">
      <phase duration="4.4450610526" state="Gr"/>
      <phase duration="3.33760848759" state="yr"/>
      <phase duration="4.4450610526" state="rG"/>
      <phase duration="3.33760848759" state="ry"/>
   </tlLogic>
   <tlLogic id="1000099591" offset="0" programID="0" type="static">
      <phase duration="33.5916179201" state="GGrr"/>
      <phase duration="8.43417896033" state="yyrr"/>
      <phase duration="33.5916179201" state="rrGG"/>
      <phase duration="8.43417896033" state="rryy"/>
   </tlLogic>
   <tlLogic id="1000099607" offset="0" programID="0" type="static">
      <phase duration="36.7377662827" state="GGr"/>
      <phase duration="6.63248982914" state="yyr"/>
      <phase duration="36.7377662827" state="rrG"/>
      <phase duration="6.63248982914" state="rry"/>
   </tlLogic>
   <tlLogic id="1000099651" offset="0" programID="0" type="static">
      <phase duration="11.8312634043" state="GGrrrr"/>
      <phase duration="6.03607632177" state="yyrrrr"/>
      <phase duration="11.8312634043" state="rrGGrr"/>
      <phase duration="6.03607632177" state="rryyrr"/>
      <phase duration="11.8312634043" state="rrrrGG"/>
      <phase duration="6.03607632177" state="rrrryy"/>
   </tlLogic>
   <tlLogic id="1000099741" offset="0" programID="0" type="static">
      <phase duration="16.3076797967" state="GGrr"/>
      <phase duration="3.76830262898" state="yyrr"/>
      <phase duration="16.3076797967" state="rrGG"/>
      <phase duration="3.76830262898" state="rryy"/>
   </tlLogic>
   <tlLogic id="1000099788" offset="0" programID="0" type="static">
      <phase duration="14.4300569852" state="GGrr"/>
      <phase duration="5.37204751024" state="yyrr"/>
      <phase duration="14.4300569852" state="rrGG"/>
      <phase duration="5.37204751024" state="rryy"/>
   </tlLogic>
   <tlLogic id="1012321573" offset="0" programID="0" type="static">
      <phase duration="10.0859226171" state="Gr"/>
      <phase duration="4.66206693907" state="yr"/>
      <phase duration="10.0859226171" state="rG"/>
      <phase duration="4.66206693907" state="ry"/>
   </tlLogic>
   <tlLogic id="1012321580" offset="0" programID="0" type="static">
      <phase duration="11.1026587729" state="Gr"/>
      <phase duration="1.82430661511" state="yr"/>
      <phase duration="11.1026587729" state="rG"/>
      <phase duration="1.82430661511" state="ry"/>
   </tlLogic>
   <tlLogic id="1012326820" offset="0" programID="0" type="static">
      <phase duration="28.7758703589" state="G"/>
      <phase duration="7.62560031187" state="y"/>
   </tlLogic>
   <tlLogic id="1028832536" offset="0" programID="0" type="static"/>
   <tlLogic id="1037290822" offset="0" programID="0" type="static">
      <phase duration="32.7307438032" state="GGrr"/>
      <phase duration="5.86911054982" state="yyrr"/>
      <phase duration="32.7307438032" state="rrGG"/>
      <phase duration="5.86911054982" state="rryy"/>
   </tlLogic>
   <tlLogic id="1037290863" offset="0" programID="0" type="static">
      <phase duration="7.70440364477" state="GGrr"/>
      <phase duration="7.95321916476" state="yyrr"/>
      <phase duration="7.70440364477" state="rrGG"/>
      <phase duration="7.95321916476" state="rryy"/>
   </tlLogic>
   <tlLogic id="1037290889" offset="0" programID="0" type="static">
      <phase duration="28.9541351523" state="GGrr"/>
      <phase duration="6.66876439257" state="yyrr"/>
      <phase duration="28.9541351523" state="rrGG"/>
      <phase duration="6.66876439257" state="rryy"/>
   </tlLogic>
   <tlLogic id="1040964333" offset="0" programID="0" type="static">
      <phase duration="25.5633269113" state="Gr"/>
      <phase duration="5.30188546906" state="yr"/>
      <phase duration="25.5633269113" state="rG"/>
      <phase duration="5.30188546906" state="ry"/>
   </tlLogic>
   <tlLogic id="1045044750" offset="0" programID="0" type="static">
      <phase duration="30.4701546548" state="Gr"/>
      <phase duration="6.12132621428" state="yr"/>
      <phase duration="30.4701546548" state="rG"/>
      <phase duration="6.12132621428" state="ry"/>
   </tlLogic>
   <tlLogic id="1045044796" offset="0" programID="0" type="static">
      <phase duration="20.8859963438" state="Gr"/>
      <phase duration="7.46668915311" state="yr"/>
      <phase duration="20.8859963438" state="rG"/>
      <phase duration="7.46668915311" state="ry"/>
   </tlLogic>
   <tlLogic id="1045044803" offset="0" programID="0" type="static">
      <phase duration="21.5855537146" state="Gr"/>
      <phase duration="4.34716957612" state="yr"/>
      <phase duration="21.5855537146" state="rG"/>
      <phase duration="4.34716957612" state="ry"/>
   </tlLogic>
   <tlLogic id="1045044863" offset="0" programID="0" type="static">
      <phase duration="18.6707366322" state="G"/>
      <phase duration="2.51977650494" state="y"/>
   </tlLogic>
   <tlLogic id="1109589944" offset="0" programID="0" type="static">
      <phase duration="29.7636432249" state="GGGrrrrrr"/>
      <phase duration="5.95881453346" state="yyyrrrrrr"/>
      <phase duration="29.7636432249" state="rrrGGGrrr"/>
      <phase duration="5.95881453346" state="rrryyyrrr"/>
      <phase duration="29.7636432249" state="rrrrrrGGG"/>
      <phase duration="5.95881453346" state="rrrrrryyy"/>
   </tlLogic>
   <tlLogic id="1109589987" offset="0" programID="0" type="static">
      <phase duration="33.8756211166" state="GGrr"/>
      <phase duration="3.04017504932" state="yyrr"/>
      <phase duration="33.8756211166" state="rrGG"/>
      <phase duration="3.04017504932" state="rryy"/>
   </tlLogic>
   <tlLogic id="1123630986" offset="0" programID="0" type="static">
      <phase duration="26.3001395281" state="G"/>
      <phase duration="3.91636173661" state="y"/>
   </tlLogic>
   <tlLogic id="1125127500" offset="0" programID="0" type="static">
      <phase duration="32.7251377285" state="GG"/>
      <phase duration="6.85304462587" state="yy"/>
   </tlLogic>
   <tlLogic id="1149210260" offset="0" programID="0" type="static">
      <phase duration="26.9794900498" state="Gr"/>
      <phase duration="4.63276410671" state="yr"/>
      <phase duration="26.9794900498" state="rG"/>
      <phase duration="4.63276410671" state="ry"/>
   </tlLogic>
   <tlLogic id="1150667539" offset="0" programID="0" type="static">
      <phase duration="10.5390353806" state="G"/>
      <phase duration="6.7194587698" state="y"/>
   </tlLogic>
   <tlLogic id="1150667555" offset="0" programID="0" type="static">
      <phase duration="21.452371804" state="Gr"/>
      <phase duration="8.26568951849" state="yr"/>
      <phase duration="21.452371804" state="rG"/>
      <phase duration="8.26568951849" state="ry"/>
   </tlLogic>
   <tlLogic id="1150667558" offset="0" programID="0" type="static">
      <phase duration="31.4588300967" state="Gr"/>
      <phase duration="3.24092082895" state="yr"/>
      <phase duration="31.4588300967" state="rG"/>
      <phase duration="3.24092082895" state="ry"/>
   </tlLogic>
   <tlLogic id="1150667560" offset="0" programID="0" type="static">
      <phase duration="20.3788650122" state="G"/>
      <phase duration="7.0389879945" state="y"/>
   </tlLogic>
   <tlLogic id="1150667568" offset="0" programID="0" type="static"/>
   <tlLogic id="1150667571" offset="0" programID="0" type="static">
      <phase duration="21.0191254822" state="G"/>
      <phase duration="4.87499141671" state="y"/>
   </tlLogic>
   <tlLogic id="1150667608" offset="0" programID="0" type="static">
      <phase duration="7.62053557799" state="Gr"/>
      <phase duration="5.34514997397" state="yr"/>
      <phase duration="7.62053557799" state="rG"/>
      <phase duration="5.34514997397" state="ry"/>
   </tlLogic>
   <tlLogic id="1150667618" offset="0" programID="0" type="static">
      <phase duration="21.1207792813" state="G"/>
      <phase duration="4.81708107373" state="y"/>
   </tlLogic>
   <tlLogic id="1156723839" offset="0" programID="0" type="static">
      <phase duration="8.38415373493" state="Gr"/>
      <phase duration="4.94487731006" state="yr"/>
      <phase duration="8.38415373493" state="rG"/>
      <phase duration="4.94487731006" state="ry"/>
   </tlLogic>
   <tlLogic id="1201745399" offset="0" programID="0" type="static"/>
   <tlLogic id="1211136497" offset="0" programID="0" type="static">
      <phase duration="29.4587822339" state="GGrr"/>
      <phase duration="6.7400431104" state="yyrr"/>
      <phase duration="29.4587822339" state="rrGG"/>
      <phase duration="6.7400431104" state="rryy"/>
   </tlLogic>
   <tlLogic id="1220020505" offset="0" programID="0" type="static">
      <phase duration="9.43952290997" state="G"/>
      <phase duration="7.80057406487" state="y"/>
   </tlLogic>
   <tlLogic id="1220020545" offset="0" programID="0" type="static">
      <phase duration="11.415231109" state="GGrrr"/>
      <phase duration="5.36918101957" state="yyrrr"/>
      <phase duration="11.415231109" state="rrGrr"/>
      <phase duration="5.36918101957" state="rryrr"/>
      <phase duration="11.415231109" state="rrrGG"/>
      <phase duration="5.36918101957" state="rrryy"/>
   </tlLogic>
   <tlLogic id="1220020607" offset="0" programID="0" type="static">
      <phase duration="18.3814214744" state="GGrr"/>
      <phase duration="5.5389529865" state="yyrr"/>
      <phase duration="18.3814214744" state="rrGG"/>
      <phase duration="5.5389529865" state="rryy"/>
   </tlLogic>
   <tlLogic id="1220020656" offset="0" programID="0" type="static">
      <phase duration="16.1779857216" state="GGrr"/>
      <phase duration="5.67809646587" state="yyrr"/>
      <phase duration="16.1779857216" state="rrGG"/>
      <phase duration="5.67809646587" state="rryy"/>
   </tlLogic>
   <tlLogic id="1220020679" offset="0" programID="0" type="static">
      <phase duration="37.7152135602" state="GGrr"/>
      <phase duration="3.14661046765" state="yyrr"/>
      <phase duration="37.7152135602" state="rrGG"/>
      <phase duration="3.14661046765" state="rryy"/>
   </tlLogic>
   <tlLogic id="1229522462" offset="0" programID="0" type="static">
      <phase duration="25.6238063541" state="G"/>
      <phase duration="4.02202814638" state="y"/>
   </tlLogic>
   <tlLogic id="1229522502" offset="0" programID="0" type="static">
      <phase duration="21.8927777838" state="Gr"/>
      <phase duration="4.60612918519" state="yr"/>
      <phase duration="21.8927777838" state="rG"/>
      <phase duration="4.60612918519" state="ry"/>
   </tlLogic>
   <tlLogic id="1252265070" offset="0" programID="0" type="static"/>
   <tlLogic id="1252285082" offset="0" programID="0" type="static">
      <phase duration="13.2386563921" state="G"/>
      <phase duration="5.22917208912" state="y"/>
   </tlLogic>
   <tlLogic id="1252285087" offset="0" programID="0" type="static"/>
   <tlLogic id="1252285107" offset="0" programID="0" type="static">
      <phase duration="31.0547017307" state="G"/>
      <phase duration="3.46618497785" state="y"/>
   </tlLogic>
   <tlLogic id="1258258237" offset="0" programID="0" type="static">
      <phase duration="24.3159541589" state="GGr"/>
      <phase duration="7.13710800517" state="yyr"/>
      <phase duration="24.3159541589" state="rrG"/>
      <phase duration="7.13710800517" state="rry"/>
   </tlLogic>
   <tlLogic id="1271504747" offset="0" programID="0" type="static">
      <phase duration="16.7678448068" state="Gr"/>
      <phase duration="3.1417113053" state="yr"/>
      <phase duration="16.7678448068" state="rG"/>
      <phase duration="3.1417113053" state="ry"/>
   </tlLogic>
   <tlLogic id="1271504748" offset="0" programID="0" type="static">
      <phase duration="16.5360037384" state="Gr"/>
      <phase duration="6.89625024544" state="yr"/>
      <phase duration="16.5360037384" state="rG"/>
      <phase duration="6.89625024544" state="ry"/>
   </tlLogic>
   <tlLogic id="1271504755" offset="0" programID="0" type="static">
      <phase duration="22.7222189651" state="GGrrr"/>
      <phase duration="3.98721191464" state="yyrrr"/>
      <phase duration="22.7222189651" state="rrGrr"/>
      <phase duration="3.98721191464" state="rryrr"/>
      <phase duration="22.7222189651" state="rrrGG"/>
      <phase duration="3.98721191464" state="rrryy"/>
   </tlLogic>
   <tlLogic id="1271504756" offset="0" programID="0" type="static">
      <phase duration="18.72019234" state="Gr"/>
      <phase duration="5.54520549549" state="yr"/>
      <phase duration="18.72019234" state="rG"/>
      <phase duration="5.54520549549" state="ry"/>
   </tlLogic>
   <tlLogic id="1271504758" offset="0" programID="0" type="static">
      <phase duration="16.3720992571" state="G"/>
      <phase duration="5.19056373097" state="y"/>
   </tlLogic>
   <tlLogic id="1271504762" offset="0" programID="0" type="static">
      <phase duration="16.7088319768" state="G"/>
      <phase duration="7.09127835392" state="y"/>
   </tlLogic>
   <tlLogic id="1271504764" offset="0" programID="0" type="static">
      <phase duration="19.6017490403" state="G"/>
      <phase duration="4.89268361356" state="y"/>
   </tlLogic>
   <tlLogic id="1271504766" offset="0" programID="0" type="static">
      <phase duration="26.1849103917" state="Gr"/>
      <phase duration="7.09295563169" state="yr"/>
      <phase duration="26.1849103917" state="rG"/>
      <phase duration="7.09295563169" state="ry"/>
   </tlLogic>
   <tlLogic id="1271504770" offset="0" programID="0" type="static">
      <phase duration="19.1077978082" state="Gr"/>
      <phase duration="8.37006898866" state="yr"/>
      <phase duration="19.1077978082" state="rG"/>
      <phase duration="8.37006898866" state="ry"/>
   </tlLogic>
   <tlLogic id="1271504773" offset="0" programID="0" type="static">
      <phase duration="23.9709670554" state="GGrrr"/>
      <phase duration="5.91368715892" state="yyrrr"/>
      <phase duration="23.9709670554" state="rrGrr"/>
      <phase duration="5.91368715892" state="rryrr"/>
      <phase duration="23.9709670554" state="rrrGG"/>
      <phase duration="5.91368715892" state="rrryy"/>
   </tlLogic>
   <tlLogic id="1271504774" offset="0" programID="0" type="static">
      <phase duration="21.9929815956" state="G"/>
      <phase duration="6.03044160505" state="y"/>
   </tlLogic>
   <tlLogic id="1271504781" offset="0" programID="0" type="static">
      <phase duration="23.0902279775" state="GGrrr"/>
      <phase duration="6.5479894108" state="yyrrr"/>
      <phase duration="23.0902279775" state="rrGrr"/>
      <phase duration="6.5479894108" state="rryrr"/>
      <phase duration="23.0902279775" state="rrrGG"/>
      <phase duration="6.5479894108" state="rrryy"/>
   </tlLogic>
   <tlLogic id="1271504788" offset="0" programID="0" type="static">
      <phase duration="20.5127714753" state="GGrrr"/>
      <phase duration="5.45169117109" state="yyrrr"/>
      <phase duration="20.5127714753" state="rrGGG"/>
      <phase duration="5.45169117109" state="rryyy"/>
   </tlLogic>
   <tlLogic id="1271504801" offset="0" programID="0" type="static">
      <phase duration="20.8749335444" state="G"/>
      <phase duration="7.99852700096" state="y"/>
   </tlLogic>
   <tlLogic id="1271504815" offset="0" programID="0" type="static">
      <phase duration="29.984509551" state="Gr"/>
      <phase duration="5.00402685703" state="yr"/>
      <phase duration="29.984509551" state="rG"/>
      <phase duration="5.00402685703" state="ry"/>
   </tlLogic>
   <tlLogic id="1271504817" offset="0" programID="0" type="static">
      <phase duration="11.6807031805" state="G"/>
      <phase duration="4.07235689033" state="y"/>
   </tlLogic>
   <tlLogic id="1271504819" offset="0" programID="0" type="static">
      <phase duration="15.5752382118" state="Gr"/>
      <phase duration="2.69933579675" state="yr"/>
      <phase duration="15.5752382118" state="rG"/>
      <phase duration="2.69933579675" state="ry"/>
   </tlLogic>
   <tlLogic id="1271504827" offset="0" programID="0" type="static">
      <phase duration="18.8899601124" state="Gr"/>
      <phase duration="6.88312878109" state="yr"/>
      <phase duration="18.8899601124" state="rG"/>
      <phase duration="6.88312878109" state="ry"/>
   </tlLogic>
   <tlLogic id="1271504829" offset="0" programID="0" type="static">
      <phase duration="20.5676958627" state="Gr"/>
      <phase duration="2.98330486061" state="yr"/>
      <phase duration="20.5676958627" state="rG"/>
      <phase duration="2.98330486061" state="ry"/>
   </tlLogic>
   <tlLogic id="1271504831" offset="0" programID="0" type="static">
      <phase duration="14.1864135354" state="G"/>
      <phase duration="5.82648394613" state="y"/>
   </tlLogic>
   <tlLogic id="1271504832" offset="0" programID="0" type="static">
      <phase duration="26.6646820146" state="Gr"/>
      <phase duration="5.67926229028" state="yr"/>
      <phase duration="26.6646820146" state="rG"/>
      <phase duration="5.67926229028" state="ry"/>
   </tlLogic>
   <tlLogic id="1271504834" offset="0" programID="0" type="static">
      <phase duration="20.5259934917" state="G"/>
      <phase duration="4.46816357855" state="y"/>
   </tlLogic>
   <tlLogic id="1271504838" offset="0" programID="0" type="static">
      <phase duration="15.2795078714" state="GGrrr"/>
      <phase duration="4.30396645531" state="yyrrr"/>
      <phase duration="15.2795078714" state="rrGGr"/>
      <phase duration="4.30396645531" state="rryyr"/>
      <phase duration="15.2795078714" state="rrrrG"/>
      <phase duration="4.30396645531" state="rrrry"/>
   </tlLogic>
   <tlLogic id="1271504843" offset="0" programID="0" type="static">
      <phase duration="5.3910338986" state="Gr"/>
      <phase duration="3.80580822734" state="yr"/>
      <phase duration="5.3910338986" state="rG"/>
      <phase duration="3.80580822734" state="ry"/>
   </tlLogic>
   <tlLogic id="1271504844" offset="0" programID="0" type="static">
      <phase duration="31.5401823008" state="G"/>
      <phase duration="9.56212822141" state="y"/>
   </tlLogic>
   <tlLogic id="1271504864" offset="0" programID="0" type="static">
      <phase duration="29.9247927192" state="G"/>
      <phase duration="4.0810142824" state="y"/>
   </tlLogic>
   <tlLogic id="1271504866" offset="0" programID="0" type="static">
      <phase duration="25.1603820086" state="G"/>
      <phase duration="8.19525691867" state="y"/>
   </tlLogic>
   <tlLogic id="1271504870" offset="0" programID="0" type="static">
      <phase duration="19.4590994192" state="G"/>
      <phase duration="5.22861398577" state="y"/>
   </tlLogic>
   <tlLogic id="1271504871" offset="0" programID="0" type="static">
      <phase duration="11.777126862" state="GGrr"/>
      <phase duration="1.82996714862" state="yyrr"/>
      <phase duration="11.777126862" state="rrGG"/>
      <phase duration="1.82996714862" state="rryy"/>
   </tlLogic>
   <tlLogic id="1271504874" offset="0" programID="0" type="static">
      <phase duration="28.3459198934" state="G"/>
      <phase duration="7.09543087958" state="y"/>
   </tlLogic>
   <tlLogic id="1271504875" offset="0" programID="0" type="static">
      <phase duration="25.7576973973" state="G"/>
      <phase duration="4.25602449844" state="y"/>
   </tlLogic>
   <tlLogic id="1271504881" offset="0" programID="0" type="static">
      <phase duration="30.7711608297" state="GGrrr"/>
      <phase duration="3.35738768195" state="yyrrr"/>
      <phase duration="30.7711608297" state="rrGrr"/>
      <phase duration="3.35738768195" state="rryrr"/>
      <phase duration="30.7711608297" state="rrrGG"/>
      <phase duration="3.35738768195" state="rrryy"/>
   </tlLogic>
   <tlLogic id="1271504887" offset="0" programID="0" type="static">
      <phase duration="25.9663255545" state="G"/>
      <phase duration="3.39126034658" state="y"/>
   </tlLogic>
   <tlLogic id="1271504893" offset="0" programID="0" type="static">
      <phase duration="10.6524278343" state="GGrrr"/>
      <phase duration="3.55013939016" state="yyrrr"/>
      <phase duration="10.6524278343" state="rrGrr"/>
      <phase duration="3.55013939016" state="rryrr"/>
      <phase duration="10.6524278343" state="rrrGG"/>
      <phase duration="3.55013939016" state="rrryy"/>
   </tlLogic>
   <tlLogic id="1271504895" offset="0" programID="0" type="static">
      <phase duration="14.7503244942" state="GGrrr"/>
      <phase duration="4.6123632977" state="yyrrr"/>
      <phase duration="14.7503244942" state="rrGrr"/>
      <phase duration="4.6123632977" state="rryrr"/>
      <phase duration="14.7503244942" state="rrrGG"/>
      <phase duration="4.6123632977" state="rrryy"/>
   </tlLogic>
   <tlLogic id="1271504898" offset="0" programID="0" type="static">
      <phase duration="8.85882407055" state="Gr"/>
      <phase duration="2.7584458002" state="yr"/>
      <phase duration="8.85882407055" state="rG"/>
      <phase duration="2.7584458002" state="ry"/>
   </tlLogic>
   <tlLogic id="1271504899" offset="0" programID="0" type="static">
      <phase duration="4.91684663992" state="G"/>
      <phase duration="4.39295510033" state="y"/>
   </tlLogic>
   <tlLogic id="1271504905" offset="0" programID="0" type="static">
      <phase duration="8.9263868527" state="G"/>
      <phase duration="4.30305652358" state="y"/>
   </tlLogic>
   <tlLogic id="1271504907" offset="0" programID="0" type="static">
      <phase duration="14.6566450497" state="G"/>
      <phase duration="2.22518200142" state="y"/>
   </tlLogic>
   <tlLogic id="1271504910" offset="0" programID="0" type="static">
      <phase duration="34.8643272958" state="Gr"/>
      <phase duration="7.00960765276" state="yr"/>
      <phase duration="34.8643272958" state="rG"/>
      <phase duration="7.00960765276" state="ry"/>
   </tlLogic>
   <tlLogic id="1271504914" offset="0" programID="0" type="static">
      <phase duration="29.9525636952" state="G"/>
      <phase duration="8.05262516104" state="y"/>
   </tlLogic>
   <tlLogic id="1271504918" offset="0" programID="0" type="static">
      <phase duration="22.1040153712" state="G"/>
      <phase duration="5.34695594398" state="y"/>
   </tlLogic>
   <tlLogic id="1299369677" offset="0" programID="0" type="static">
      <phase duration="23.4798003895" state="G"/>
      <phase duration="6.8411569257" state="y"/>
   </tlLogic>
   <tlLogic id="1299369679" offset="0" programID="0" type="static">
      <phase duration="14.5105269345" state="G"/>
      <phase duration="3.76419836416" state="y"/>
   </tlLogic>
   <tlLogic id="1299369684" offset="0" programID="0" type="static">
      <phase duration="19.3173483892" state="G"/>
      <phase duration="7.53610201608" state="y"/>
   </tlLogic>
   <tlLogic id="1299369686" offset="0" programID="0" type="static">
      <phase duration="5.40689277765" state="G"/>
      <phase duration="3.96145744041" state="y"/>
   </tlLogic>
   <tlLogic id="1299369699" offset="0" programID="0" type="static">
      <phase duration="16.4121587987" state="G"/>
      <phase duration="3.23225785839" state="y"/>
   </tlLogic>
   <tlLogic id="1299369701" offset="0" programID="0" type="static">
      <phase duration="21.3060755767" state="GGrrr"/>
      <phase duration="5.83975965578" state="yyrrr"/>
      <phase duration="21.3060755767" state="rrGrr"/>
      <phase duration="5.83975965578" state="rryrr"/>
      <phase duration="21.3060755767" state="rrrGG"/>
      <phase duration="5.83975965578" state="rrryy"/>
   </tlLogic>
   <tlLogic id="1366801185" offset="0" programID="0" type="static">
      <phase duration="13.3768799508" state="G"/>
      <phase duration="6.11707250442" state="y"/>
   </tlLogic>
   <tlLogic id="1366801190" offset="0" programID="0" type="static"/>
   <tlLogic id="1366801194" offset="0" programID="0" type="static"/>
   <tlLogic id="1366801200" offset="0" programID="0" type="static">
      <phase duration="18.9400449017" state="Gr"/>
      <phase duration="7.0567804441" state="yr"/>
      <phase duration="18.9400449017" state="rG"/>
      <phase duration="7.0567804441" state="ry"/>
   </tlLogic>
   <tlLogic id="1366801217" offset="0" programID="0" type="static">
      <phase duration="26.9058847979" state="G"/>
      <phase duration="4.70188736258" state="y"/>
   </tlLogic>
   <tlLogic id="1366801262" offset="0" programID="0" type="static">
      <phase duration="33.2679568658" state="G"/>
      <phase duration="7.76284168948" state="y"/>
   </tlLogic>
   <tlLogic id="1366801267" offset="0" programID="0" type="static">
      <phase duration="21.3691444931" state="Grr"/>
      <phase duration="6.77415664465" state="yrr"/>
      <phase duration="21.3691444931" state="rGr"/>
      <phase duration="6.77415664465" state="ryr"/>
      <phase duration="21.3691444931" state="rrG"/>
      <phase duration="6.77415664465" state="rry"/>
   </tlLogic>
   <tlLogic id="1492679678" offset="0" programID="0" type="static">
      <phase duration="6.90114117149" state="Gr"/>
      <phase duration="8.14075546029" state="yr"/>
      <phase duration="6.90114117149" state="rG"/>
      <phase duration="8.14075546029" state="ry"/>
   </tlLogic>
   <tlLogic id="1492679687" offset="0" programID="0" type="static">
      <phase duration="20.08671196" state="Gr"/>
      <phase duration="5.26075680644" state="yr"/>
      <phase duration="20.08671196" state="rG"/>
      <phase duration="5.26075680644" state="ry"/>
   </tlLogic>
   <tlLogic id="1492679723" offset="0" programID="0" type="static">
      <phase duration="18.0092931863" state="GGrrr"/>
      <phase duration="2.8728718823" state="yyrrr"/>
      <phase duration="18.0092931863" state="rrGrr"/>
      <phase duration="2.8728718823" state="rryrr"/>
      <phase duration="18.0092931863" state="rrrGG"/>
      <phase duration="2.8728718823" state="rrryy"/>
   </tlLogic>
   <tlLogic id="1492679726" offset="0" programID="0" type="static">
      <phase duration="21.6233458434" state="G"/>
      <phase duration="8.55434515925" state="y"/>
   </tlLogic>
   <tlLogic id="1492679729" offset="0" programID="0" type="static">
      <phase duration="26.9430627763" state="G"/>
      <phase duration="5.76562264472" state="y"/>
   </tlLogic>
   <tlLogic id="1492679741" offset="0" programID="0" type="static">
      <phase duration="35.75729256" state="G"/>
      <phase duration="4.79105770583" state="y"/>
   </tlLogic>
   <tlLogic id="1492729097" offset="0" programID="0" type="static">
      <phase duration="26.1441536366" state="Gr"/>
      <phase duration="2.25634091065" state="yr"/>
      <phase duration="26.1441536366" state="rG"/>
      <phase duration="2.25634091065" state="ry"/>
   </tlLogic>
   <tlLogic id="1492729114" offset="0" programID="0" type="static">
      <phase duration="13.3171249728" state="Gr"/>
      <phase duration="2.63624709884" state="yr"/>
      <phase duration="13.3171249728" state="rG"/>
      <phase duration="2.63624709884" state="ry"/>
   </tlLogic>
   <tlLogic id="1492802032" offset="0" programID="0" type="static">
      <phase duration="19.6355636636" state="G"/>
      <phase duration="4.36220413954" state="y"/>
   </tlLogic>
   <tlLogic id="1492802066" offset="0" programID="0" type="static">
      <phase duration="12.9173561657" state="Gr"/>
      <phase duration="8.14152596053" state="yr"/>
      <phase duration="12.9173561657" state="rG"/>
      <phase duration="8.14152596053" state="ry"/>
   </tlLogic>
   <tlLogic id="1492802067" offset="0" programID="0" type="static">
      <phase duration="15.8030192454" state="G"/>
      <phase duration="6.34145776843" state="y"/>
   </tlLogic>
   <tlLogic id="1492802180" offset="0" programID="0" type="static">
      <phase duration="18.3517899105" state="GGrrr"/>
      <phase duration="5.05342478374" state="yyrrr"/>
      <phase duration="18.3517899105" state="rrGrr"/>
      <phase duration="5.05342478374" state="rryrr"/>
      <phase duration="18.3517899105" state="rrrGG"/>
      <phase duration="5.05342478374" state="rrryy"/>
   </tlLogic>
   <tlLogic id="1492802187" offset="0" programID="0" type="static">
      <phase duration="11.9978265109" state="Gr"/>
      <phase duration="5.45091345812" state="yr"/>
      <phase duration="11.9978265109" state="rG"/>
      <phase duration="5.45091345812" state="ry"/>
   </tlLogic>
   <tlLogic id="1520433227" offset="0" programID="0" type="static">
      <phase duration="28.044470541" state="Gr"/>
      <phase duration="6.68183057375" state="yr"/>
      <phase duration="28.044470541" state="rG"/>
      <phase duration="6.68183057375" state="ry"/>
   </tlLogic>
   <tlLogic id="1525505187" offset="0" programID="0" type="static">
      <phase duration="20.1118371925" state="G"/>
      <phase duration="6.93183461047" state="y"/>
   </tlLogic>
   <tlLogic id="1546385394" offset="0" programID="0" type="static">
      <phase duration="25.4140057104" state="Gr"/>
      <phase duration="7.19090869326" state="yr"/>
      <phase duration="25.4140057104" state="rG"/>
      <phase duration="7.19090869326" state="ry"/>
   </tlLogic>
   <tlLogic id="1546385396" offset="0" programID="0" type="static">
      <phase duration="10.7293288925" state="G"/>
      <phase duration="6.93538793441" state="y"/>
   </tlLogic>