<?xml version="1.0" ?>
<tlLogics>
   <tlLogic id="1000099475" offset="0" programID="0" type="static">
      <phase duration="27.2340482052" state="GG"/>
      <phase duration="2.67898029863" state="yy"/>
   </tlLogic>
   <tlLogic id="1000099551" offset="0" programID="0" type="static">
      <phase duration="24.1747240537" state="G"/>
      <phase duration="9.92972176048" state="y"/>
   </tlLogic>
   <tlLogic id="1000099607" offset="0" programID="0" type="static">
      <phase duration="21.5979872655" state="GGr"/>
      <phase duration="2.32391589064" state="yyr"/>
      <phase duration="21.5979872655" state="rrG"/>
      <phase duration="2.32391589064" state="rry"/>
   </tlLogic>
   <tlLogic id="1000099650" offset="0" programID="0" type="static">
      <phase duration="32.8055874981" state="G"/>
      <phase duration="8.84008274807" state="y"/>
   </tlLogic>
   <tlLogic id="1000099651" offset="0" programID="0" type="static">
      <phase duration="13.9467522457" state="GGrrrr"/>
      <phase duration="5.12779233723" state="yyrrrr"/>
      <phase duration="13.9467522457" state="rrGGrr"/>
      <phase duration="5.12779233723" state="rryyrr"/>
      <phase duration="13.9467522457" state="rrrrGG"/>
      <phase duration="5.12779233723" state="rrrryy"/>
   </tlLogic>
   <tlLogic id="1000099741" offset="0" programID="0" type="static">
      <phase duration="13.9962963838" state="GGrr"/>
      <phase duration="6.96059470954" state="yyrr"/>
      <phase duration="13.9962963838" state="rrGG"/>
      <phase duration="6.96059470954" state="rryy"/>
   </tlLogic>
   <tlLogic id="1000099788" offset="0" programID="0" type="static">
      <phase duration="4.129679314" state="GGrr"/>
      <phase duration="6.74274134169" state="yyrr"/>
      <phase duration="4.129679314" state="rrGG"/>
      <phase duration="6.74274134169" state="rryy"/>
   </tlLogic>
   <tlLogic id="1012321573" offset="0" programID="0" type="static">
      <phase duration="22.3561768038" state="Gr"/>
      <phase duration="9.59984067634" state="yr"/>
      <phase duration="22.3561768038" state="rG"/>
      <phase duration="9.59984067634" state="ry"/>
   </tlLogic>
   <tlLogic id="1012321580" offset="0" programID="0" type="static">
      <phase duration="19.9674069751" state="Gr"/>
      <phase duration="3.50061518958" state="yr"/>
      <phase duration="19.9674069751" state="rG"/>
      <phase duration="3.50061518958" state="ry"/>
   </tlLogic>
   <tlLogic id="1037290944" offset="0" programID="0" type="static">
      <phase duration="12.7779274167" state="G"/>
      <phase duration="7.11349541135" state="y"/>
   </tlLogic>
   <tlLogic id="1040964328" offset="0" programID="0" type="static">
      <phase duration="18.2669859345" state="Gr"/>
      <phase duration="7.83257191393" state="yr"/>
      <phase duration="18.2669859345" state="rG"/>
      <phase duration="7.83257191393" state="ry"/>
   </tlLogic>
   <tlLogic id="1040964333" offset="0" programID="0" type="static">
      <phase duration="4.79149914533" state="Gr"/>
      <phase duration="7.94819790223" state="yr"/>
      <phase duration="4.79149914533" state="rG"/>
      <phase duration="7.94819790223" state="ry"/>
   </tlLogic>
   <tlLogic id="1045044692" offset="0" programID="0" type="static">
      <phase duration="18.185204625" state="Gr"/>
      <phase duration="5.19865241475" state="yr"/>
      <phase duration="18.185204625" state="rG"/>
      <phase duration="5.19865241475" state="ry"/>
   </tlLogic>
   <tlLogic id="1045044715" offset="0" programID="0" type="static">
      <phase duration="24.8149532795" state="Gr"/>
      <phase duration="8.03624689934" state="yr"/>
      <phase duration="24.8149532795" state="rG"/>
      <phase duration="8.03624689934" state="ry"/>
   </tlLogic>
   <tlLogic id="1045044796" offset="0" programID="0" type="static">
      <phase duration="36.6740118169" state="Gr"/>
      <phase duration="8.65787880764" state="yr"/>
      <phase duration="36.6740118169" state="rG"/>
      <phase duration="8.65787880764" state="ry"/>
   </tlLogic>
   <tlLogic id="1123630986" offset="0" programID="0" type="static">
      <phase duration="20.4602332966" state="G"/>
      <phase duration="6.08543163671" state="y"/>
   </tlLogic>
   <tlLogic id="1150667540" offset="0" programID="0" type="static">
      <phase duration="25.6143285024" state="G"/>
      <phase duration="8.47882864179" state="y"/>
   </tlLogic>
   <tlLogic id="1150667604" offset="0" programID="0" type="static">
      <phase duration="16.3142350639" state="Gr"/>
      <phase duration="8.08937263377" state="yr"/>
      <phase duration="16.3142350639" state="rG"/>
      <phase duration="8.08937263377" state="ry"/>
   </tlLogic>
   <tlLogic id="1150667608" offset="0" programID="0" type="static">
      <phase duration="22.9199699429" state="Gr"/>
      <phase duration="8.6271973589" state="yr"/>
      <phase duration="22.9199699429" state="rG"/>
      <phase duration="8.6271973589" state="ry"/>
   </tlLogic>
   <tlLogic id="1156723779" offset="0" programID="0" type="static">
      <phase duration="30.5577782396" state="GGrrr"/>
      <phase duration="5.10805457946" state="yyrrr"/>
      <phase duration="30.5577782396" state="rrGrr"/>
      <phase duration="5.10805457946" state="rryrr"/>
      <phase duration="30.5577782396" state="rrrGG"/>
      <phase duration="5.10805457946" state="rrryy"/>
   </tlLogic>
   <tlLogic id="1156723839" offset="0" programID="0" type="static">
      <phase duration="24.8375978243" state="Gr"/>
      <phase duration="5.52639219831" state="yr"/>
      <phase duration="24.8375978243" state="rG"/>
      <phase duration="5.52639219831" state="ry"/>
   </tlLogic>
   <tlLogic id="1200892937" offset="0" programID="0" type="static">
      <phase duration="16.5797845994" state="G"/>
      <phase duration="9.20939522871" state="y"/>
   </tlLogic>
   <tlLogic id="1201745377" offset="0" programID="0" type="static">
      <phase duration="3.58552774806" state="G"/>
      <phase duration="2.74535903984" state="y"/>
   </tlLogic>
   <tlLogic id="1201745399" offset="0" programID="0" type="static"/>
   <tlLogic id="1211136870" offset="0" programID="0" type="static">
      <phase duration="24.9330463525" state="GGrr"/>
      <phase duration="7.64044639366" state="yyrr"/>
      <phase duration="24.9330463525" state="rrGG"/>
      <phase duration="7.64044639366" state="rryy"/>
   </tlLogic>
   <tlLogic id="1220020545" offset="0" programID="0" type="static">
      <phase duration="35.6802995755" state="GGrrr"/>
      <phase duration="9.02834956415" state="yyrrr"/>
      <phase duration="35.6802995755" state="rrGrr"/>
      <phase duration="9.02834956415" state="rryrr"/>
      <phase duration="35.6802995755" state="rrrGG"/>
      <phase duration="9.02834956415" state="rrryy"/>
   </tlLogic>
   <tlLogic id="1220020588" offset="0" programID="0" type="static">
      <phase duration="5.77207829872" state="GGrr"/>
      <phase duration="9.86077028044" state="yyrr"/>
      <phase duration="5.77207829872" state="rrGG"/>
      <phase duration="9.86077028044" state="rryy"/>
   </tlLogic>
   <tlLogic id="1220020630" offset="0" programID="0" type="static">
      <phase duration="26.4710256869" state="Gr"/>
      <phase duration="8.60125098819" state="yr"/>
      <phase duration="26.4710256869" state="rG"/>
      <phase duration="8.60125098819" state="ry"/>
   </tlLogic>
   <tlLogic id="1220020673" offset="0" programID="0" type="static">
      <phase duration="10.6348131292" state="GGGrrrrrr"/>
      <phase duration="3.96628110917" state="yyyrrrrrr"/>
      <phase duration="10.6348131292" state="rrrGGGrrr"/>
      <phase duration="3.96628110917" state="rrryyyrrr"/>
      <phase duration="10.6348131292" state="rrrrrrGGG"/>
      <phase duration="3.96628110917" state="rrrrrryyy"/>
   </tlLogic>
   <tlLogic id="1220020679" offset="0" programID="0" type="static">
      <phase duration="8.49734283577" state="GGrr"/>
      <phase duration="8.55740194991" state="yyrr"/>
      <phase duration="8.49734283577" state="rrGG"/>
      <phase duration="8.55740194991" state="rryy"/>
   </tlLogic>
   <tlLogic id="1229522462" offset="0" programID="0" type="static">
      <phase duration="2.37904208194" state="G"/>
      <phase duration="5.9764141363" state="y"/>
   </tlLogic>
   <tlLogic id="1252285079" offset="0" programID="0" type="static">
      <phase duration="29.3588375428" state="Gr"/>
      <phase duration="3.06436258548" state="yr"/>
      <phase duration="29.3588375428" state="rG"/>
      <phase duration="3.06436258548" state="ry"/>
   </tlLogic>
   <tlLogic id="1252285082" offset="0" programID="0" type="static">
      <phase duration="31.8324392816" state="G"/>
      <phase duration="4.30029144076" state="y"/>
   </tlLogic>
   <tlLogic id="1252285087" offset="0" programID="0" type="static"/>
   <tlLogic id="1252285092" offset="0" programID="0" type="static">
      <phase duration="19.1013864061" state="G"/>
      <phase duration="4.7684874989" state="y"/>
   </tlLogic>
   <tlLogic id="1252285093" offset="0" programID="0" type="static">
      <phase duration="26.7990814379" state="Gr"/>
      <phase duration="3.00242600789" state="yr"/>
      <phase duration="26.7990814379" state="rG"/>
      <phase duration="3.00242600789" state="ry"/>
   </tlLogic>
   <tlLogic id="1252285105" offset="0" programID="0" type="static">
      <phase duration="11.9778558747" state="G"/>
      <phase duration="7.68567206539" state="y"/>
   </tlLogic>
   <tlLogic id="1252285133" offset="0" programID="0" type="static">
      <phase duration="6.22715219333" state="Gr"/>
      <phase duration="4.25277886588" state="yr"/>
      <phase duration="6.22715219333" state="rG"/>
      <phase duration="4.25277886588" state="ry"/>
   </tlLogic>
   <tlLogic id="1252285140" offset="0" programID="0" type="static">
      <phase duration="11.4372208697" state="Gr"/>
      <phase duration="4.60473295114" state="yr"/>
      <phase duration="11.4372208697" state="rG"/>
      <phase duration="4.60473295114" state="ry"/>
   </tlLogic>
   <tlLogic id="1258258237" offset="0" programID="0" type="static">
      <phase duration="9.45878923518" state="GGr"/>
      <phase duration="2.28098033211" state="yyr"/>
      <phase duration="9.45878923518" state="rrG"/>
      <phase duration="2.28098033211" state="rry"/>
   </tlLogic>
   <tlLogic id="1271504738" offset="0" programID="0" type="static">
      <phase duration="37.2781644892" state="Gr"/>
      <phase duration="2.07495312493" state="yr"/>
      <phase duration="37.2781644892" state="rG"/>
      <phase duration="2.07495312493" state="ry"/>
   </tlLogic>
   <tlLogic id="1271504747" offset="0" programID="0" type="static">
      <phase duration="17.5378088061" state="Gr"/>
      <phase duration="4.54799270791" state="yr"/>
      <phase duration="17.5378088061" state="rG"/>
      <phase duration="4.54799270791" state="ry"/>
   </tlLogic>
   <tlLogic id="1271504748" offset="0" programID="0" type="static">
      <phase duration="24.9081343064" state="Gr"/>
      <phase duration="7.53266949999" state="yr"/>
      <phase duration="24.9081343064" state="rG"/>
      <phase duration="7.53266949999" state="ry"/>
   </tlLogic>
   <tlLogic id="1271504757" offset="0" programID="0" type="static">
      <phase duration="8.26140638565" state="GGrrr"/>
      <phase duration="9.4276677106" state="yyrrr"/>
      <phase duration="8.26140638565" state="rrGrr"/>
      <phase duration="9.4276677106" state="rryrr"/>
      <phase duration="8.26140638565" state="rrrGG"/>
      <phase duration="9.4276677106" state="rrryy"/>
   </tlLogic>
   <tlLogic id="1271504758" offset="0" programID="0" type="static">
      <phase duration="33.4010125733" state="G"/>
      <phase duration="7.9172737095" state="y"/>
   </tlLogic>
   <tlLogic id="1271504767" offset="0" programID="0" type="static">
      <phase duration="8.63742950211" state="G"/>
      <phase duration="6.59205463068" state="y"/>
   </tlLogic>
   <tlLogic id="1271504773" offset="0" programID="0" type="static">
      <phase duration="32.1579554679" state="GGrrr"/>
      <phase duration="9.73445491667" state="yyrrr"/>
      <phase duration="32.1579554679" state="rrGrr"/>
      <phase duration="9.73445491667" state="rryrr"/>
      <phase duration="32.1579554679" state="rrrGG"/>
      <phase duration="9.73445491667" state="rrryy"/>
   </tlLogic>
   <tlLogic id="1271504778" offset="0" programID="0" type="static">
      <phase duration="7.87137277691" state="G"/>
      <phase duration="7.94583016248" state="y"/>
   </tlLogic>
   <tlLogic id="1271504788" offset="0" programID="0" type="static">
      <phase duration="16.4970692631" state="GGrrr"/>
      <phase duration="5.31675902342" state="yyrrr"/>
      <phase duration="16.4970692631" state="rrGGG"/>
      <phase duration="5.31675902342" state="rryyy"/>
   </tlLogic>
   <tlLogic id="1271504795" offset="0" programID="0" type="static">
      <phase duration="26.7064833657" state="G"/>
      <phase duration="8.06267456999" state="y"/>
   </tlLogic>
   <tlLogic id="1271504801" offset="0" programID="0" type="static">
      <phase duration="26.5164910793" state="G"/>
      <phase duration="6.95936110472" state="y"/>
   </tlLogic>
   <tlLogic id="1271504812" offset="0" programID="0" type="static">
      <phase duration="15.0721820207" state="G"/>
      <phase duration="8.75563029784" state="y"/>
   </tlLogic>
   <tlLogic id="1271504813" offset="0" programID="0" type="static">
      <phase duration="8.66448122621" state="G"/>
      <phase duration="3.41459700766" state="y"/>
   </tlLogic>
   <tlLogic id="1271504814" offset="0" programID="0" type="static">
      <phase duration="18.9332726178" state="G"/>
      <phase duration="6.29444511015" state="y"/>
   </tlLogic>
   <tlLogic id="1271504815" offset="0" programID="0" type="static">
      <phase duration="18.8173552762" state="Gr"/>
      <phase duration="5.3150451197" state="yr"/>
      <phase duration="18.8173552762" state="rG"/>
      <phase duration="5.3150451197" state="ry"/>
   </tlLogic>
   <tlLogic id="1271504819" offset="0" programID="0" type="static">
      <phase duration="8.56365473063" state="Gr"/>
      <phase duration="9.81341042929" state="yr"/>
      <phase duration="8.56365473063" state="rG"/>
      <phase duration="9.81341042929" state="ry"/>
   </tlLogic>
   <tlLogic id="1271504822" offset="0" programID="0" type="static">
      <phase duration="17.1348990158" state="G"/>
      <phase duration="2.01729593443" state="y"/>
   </tlLogic>
   <tlLogic id="1271504824" offset="0" programID="0" type="static">
      <phase duration="12.8331997381" state="G"/>
      <phase duration="9.83759675965" state="y"/>
   </tlLogic>
   <tlLogic id="1271504827" offset="0" programID="0" type="static">
      <phase duration="33.2448016379" state="Gr"/>
      <phase duration="2.36234851693" state="yr"/>
      <phase duration="33.2448016379" state="rG"/>
      <phase duration="2.36234851693" state="ry"/>
   </tlLogic>
   <tlLogic id="1271504828" offset="0" programID="0" type="static">
      <phase duration="35.033380283" state="GGrrr"/>
      <phase duration="9.54167407641" state="yyrrr"/>
      <phase duration="35.033380283" state="rrGrr"/>
      <phase duration="9.54167407641" state="rryrr"/>
      <phase duration="35.033380283" state="rrrGG"/>
      <phase duration="9.54167407641" state="rrryy"/>
   </tlLogic>
   <tlLogic id="1271504829" offset="0" programID="0" type="static">
      <phase duration="30.0641309493" state="Gr"/>
      <phase duration="8.26506825542" state="yr"/>
      <phase duration="30.0641309493" state="rG"/>
      <phase duration="8.26506825542" state="ry"/>
   </tlLogic>
   <tlLogic id="1271504831" offset="0" programID="0" type="static">
      <phase duration="25.0336329952" state="G"/>
      <phase duration="6.75060427172" state="y"/>
   </tlLogic>
   <tlLogic id="1271504832" offset="0" programID="0" type="static">
      <phase duration="25.2316792101" state="Gr"/>
      <phase duration="9.6272415607" state="yr"/>
      <phase duration="25.2316792101" state="rG"/>
      <phase duration="9.6272415607" state="ry"/>
   </tlLogic>
   <tlLogic id="1271504838" offset="0" programID="0" type="static">
      <phase duration="19.2749435373" state="GGrrr"/>
      <phase duration="4.0694238535" state="yyrrr"/>
      <phase duration="19.2749435373" state="rrGGr"/>
      <phase duration="4.0694238535" state="rryyr"/>
      <phase duration="19.2749435373" state="rrrrG"/>
      <phase duration="4.0694238535" state="rrrry"/>
   </tlLogic>
   <tlLogic id="1271504842" offset="0" programID="0" type="static">
      <phase duration="18.3689291866" state="G"/>
      <phase duration="4.51226393335" state="y"/>
   </tlLogic>
   <tlLogic id="1271504844" offset="0" programID="0" type="static">
      <phase duration="23.1828295584" state="G"/>
      <phase duration="6.41843480056" state="y"/>
   </tlLogic>
   <tlLogic id="1271504850" offset="0" programID="0" type="static">
      <phase duration="14.9537492476" state="Gr"/>
      <phase duration="4.43333149856" state="yr"/>
      <phase duration="14.9537492476" state="rG"/>
      <phase duration="4.43333149856" state="ry"/>
   </tlLogic>
   <tlLogic id="1271504851" offset="0" programID="0" type="static">
      <phase duration="21.3721190425" state="G"/>
      <phase duration="1.82612327065" state="y"/>
   </tlLogic>
   <tlLogic id="1271504852" offset="0" programID="0" type="static">
      <phase duration="17.9301253389" state="G"/>
      <phase duration="3.40315698943" state="y"/>
   </tlLogic>
   <tlLogic id="1271504858" offset="0" programID="0" type="static">
      <phase duration="22.0525274524" state="G"/>
      <phase duration="8.02981397594" state="y"/>
   </tlLogic>
   <tlLogic id="1271504866" offset="0" programID="0" type="static">
      <phase duration="25.2748928098" state="G"/>
      <phase duration="8.33681788221" state="y"/>
   </tlLogic>
   <tlLogic id="1271504868" offset="0" programID="0" type="static">
      <phase duration="29.9185361995" state="Gr"/>
      <phase duration="5.72602276308" state="yr"/>
      <phase duration="29.9185361995" state="rG"/>
      <phase duration="5.72602276308" state="ry"/>
   </tlLogic>
   <tlLogic id="1271504871" offset="0" programID="0" type="static">
      <phase duration="21.5515206862" state="GGrr"/>
      <phase duration="6.28825577321" state="yyrr"/>
      <phase duration="21.5515206862" state="rrGG"/>
      <phase duration="6.28825577321" state="rryy"/>
   </tlLogic>
   <tlLogic id="1271504874" offset="0" programID="0" type="static">
      <phase duration="21.8020065449" state="G"/>
      <phase duration="6.73490757089" state="y"/>
   </tlLogic>
   <tlLogic id="1271504875" offset="0" programID="0" type="static">
      <phase duration="21.1007630004" state="G"/>
      <phase duration="4.40287508015" state="y"/>
   </tlLogic>
   <tlLogic id="1271504876" offset="0" programID="0" type="static">
      <phase duration="6.93789582874" state="G"/>
      <phase duration="6.63000162601" state="y"/>
   </tlLogic>
   <tlLogic id="1271504878" offset="0" programID="0" type="static">
      <phase duration="17.6068425882" state="G"/>
      <phase duration="4.42392867083" state="y"/>
   </tlLogic>
   <tlLogic id="1271504881" offset="0" programID="0" type="static">
      <phase duration="28.5619483251" state="GGrrr"/>
      <phase duration="4.8283147401" state="yyrrr"/>
      <phase duration="28.5619483251" state="rrGrr"/>
      <phase duration="4.8283147401" state="rryrr"/>
      <phase duration="28.5619483251" state="rrrGG"/>
      <phase duration="4.8283147401" state="rrryy"/>
   </tlLogic>
   <tlLogic id="1271504883" offset="0" programID="0" type="static">
      <phase duration="5.68511771135" state="GGrrr"/>
      <phase duration="2.20531380103" state="yyrrr"/>
      <phase duration="5.68511771135" state="rrGrr"/>
      <phase duration="2.20531380103" state="rryrr"/>
      <phase duration="5.68511771135" state="rrrGG"/>
      <phase duration="2.20531380103" state="rrryy"/>
   </tlLogic>
   <tlLogic id="1271504884" offset="0" programID="0" type="static">
      <phase duration="17.8151548842" state="G"/>
      <phase duration="3.23792664388" state="y"/>
   </tlLogic>
   <tlLogic id="1271504887" offset="0" programID="0" type="static">
      <phase duration="11.1155798352" state="G"/>
      <phase duration="8.58743877419" state="y"/>
   </tlLogic>
   <tlLogic id="1271504889" offset="0" programID="0" type="static">
      <phase duration="27.4866559404" state="Gr"/>
      <phase duration="6.75753922152" state="yr"/>
      <phase duration="27.4866559404" state="rG"/>
      <phase duration="6.75753922152" state="ry"/>
   </tlLogic>
   <tlLogic id="1271504893" offset="0" programID="0" type="static">
      <phase duration="19.461748414" state="GGrrr"/>
      <phase duration="6.79799373311" state="yyrrr"/>
      <phase duration="19.461748414" state="rrGrr"/>
      <phase duration="6.79799373311" state="rryrr"/>
      <phase duration="19.461748414" state="rrrGG"/>
      <phase duration="6.79799373311" state="rrryy"/>
   </tlLogic>
   <tlLogic id="1271504895" offset="0" programID="0" type="static">
      <phase duration="24.1533193077" state="GGrrr"/>
      <phase duration="9.83227089187" state="yyrrr"/>
      <phase duration="24.1533193077" state="rrGrr"/>
      <phase duration="9.83227089187" state="rryrr"/>
      <phase duration="24.1533193077" state="rrrGG"/>
      <phase duration="9.83227089187" state="rrryy"/>
   </tlLogic>
   <tlLogic id="1271504898" offset="0" programID="0" type="static">
      <phase duration="16.6328753806" state="Gr"/>
      <phase duration="5.26249956665" state="yr"/>
      <phase duration="16.6328753806" state="rG"/>
      <phase duration="5.26249956665" state="ry"/>
   </tlLogic>
   <tlLogic id="1271504899" offset="0" programID="0" type="static">
      <phase duration="16.0336455766" state="G"/>
      <phase duration="5.1511256645" state="y"/>
   </tlLogic>
   <tlLogic id="1271504902" offset="0" programID="0" type="static">
      <phase duration="24.4142591519" state="Gr"/>
      <phase duration="7.31889152845" state="yr"/>
      <phase duration="24.4142591519" state="rG"/>
      <phase duration="7.31889152845" state="ry"/>
   </tlLogic>
   <tlLogic id="1271504910" offset="0" programID="0" type="static">
      <phase duration="38.3569326001" state="Gr"/>
      <phase duration="3.52240126633" state="yr"/>
      <phase duration="38.3569326001" state="rG"/>
      <phase duration="3.52240126633" state="ry"/>
   </tlLogic>
   <tlLogic id="1271504911" offset="0" programID="0" type="static">
      <phase duration="12.684308557" state="G"/>
      <phase duration="4.13003740325" state="y"/>
   </tlLogic>
   <tlLogic id="1271504914" offset="0" programID="0" type="static">
      <phase duration="24.0742310631" state="G"/>
      <phase duration="8.56235298468" state="y"/>
   </tlLogic>
   <tlLogic id="1299369686" offset="0" programID="0" type="static">
      <phase duration="11.7134205215" state="G"/>
      <phase duration="3.96856367727" state="y"/>
   </tlLogic>
   <tlLogic id="1299369689" offset="0" programID="0" type="static">
      <phase duration="34.4533190504" state="GGrrr"/>
      <phase duration="3.87895408747" state="yyrrr"/>
      <phase duration="34.4533190504" state="rrGrr"/>
      <phase duration="3.87895408747" state="rryrr"/>
      <phase duration="34.4533190504" state="rrrGG"/>
      <phase duration="3.87895408747" state="rrryy"/>
   </tlLogic>
   <tlLogic id="1299369691" offset="0" programID="0" type="static">
      <phase duration="20.2168140355" state="Gr"/>
      <phase duration="4.97963103855" state="yr"/>
      <phase duration="20.2168140355" state="rG"/>
      <phase duration="4.97963103855" state="ry"/>
   </tlLogic>
   <tlLogic id="1299369694" offset="0" programID="0" type="static">
      <phase duration="15.7380598787" state="G"/>
      <phase duration="8.37918845871" state="y"/>
   </tlLogic>
   <tlLogic id="1299369699" offset="0" programID="0" type="static">
      <phase duration="15.4935788891" state="G"/>
      <phase duration="5.86344031108" state="y"/>
   </tlLogic>
   <tlLogic id="1312440659" offset="0" programID="0" type="static">
      <phase duration="12.4022180504" state="GGrrr"/>
      <phase duration="4.68259275211" state="yyrrr"/>
      <phase duration="12.4022180504" state="rrGrr"/>
      <phase duration="4.68259275211" state="rryrr"/>
      <phase duration="12.4022180504" state="rrrGG"/>
      <phase duration="4.68259275211" state="rrryy"/>
   </tlLogic>
   <tlLogic id="1312440715" offset="0" programID="0" type="static">
      <phase duration="17.0466629711" state="Gr"/>
      <phase duration="6.07434393532" state="yr"/>
      <phase duration="17.0466629711" state="rG"/>
      <phase duration="6.07434393532" state="ry"/>
   </tlLogic>
   <tlLogic id="1312812204" offset="0" programID="0" type="static">
      <phase duration="15.2072312906" state="G"/>
      <phase duration="9.89328325995" state="y"/>
   </tlLogic>
   <tlLogic id="1360932319" offset="0" programID="0" type="static"/>
   <tlLogic id="1366801200" offset="0" programID="0" type="static">
      <phase duration="23.6181233771" state="Gr"/>
      <phase duration="2.44946737123" state="yr"/>
      <phase duration="23.6181233771" state="rG"/>
      <phase duration="2.44946737123" state="ry"/>
   </tlLogic>
   <tlLogic id="1366801267" offset="0" programID="0" type="static">
      <phase duration="10.6806889446" state="Grr"/>
      <phase duration="9.57322433418" state="yrr"/>
      <phase duration="10.6806889446" state="rGr"/>
      <phase duration="9.57322433418" state="ryr"/>
      <phase duration="10.6806889446" state="rrG"/>
      <phase duration="9.57322433418" state="rry"/>
   </tlLogic>
   <tlLogic id="1492679675" offset="0" programID="0" type="static">
      <phase duration="30.6122147638" state="Gr"/>
      <phase duration="8.86661777781" state="yr"/>
      <phase duration="30.6122147638" state="rG"/>
      <phase duration="8.86661777781" state="ry"/>
   </tlLogic>
   <tlLogic id="1492679678" offset="0" programID="0" type="static">
      <phase duration="27.6791671294" state="Gr"/>
      <phase duration="7.35247397974" state="yr"/>
      <phase duration="27.6791671294" state="rG"/>
      <phase duration="7.35247397974" state="ry"/>
   </tlLogic>
   <tlLogic id="1492679723" offset="0" programID="0" type="static">
      <phase duration="5.584811253" state="GGrrr"/>
      <phase duration="2.99973930235" state="yyrrr"/>
      <phase duration="5.584811253" state="rrGrr"/>
      <phase duration="2.99973930235" state="rryrr"/>
      <phase duration="5.584811253" state="rrrGG"/>
      <phase duration="2.99973930235" state="rrryy"/>
   </tlLogic>
   <tlLogic id="1492679726" offset="0" programID="0" type="static">
      <phase duration="16.7041920872" state="G"/>
      <phase duration="6.77237740882" state="y"/>
   </tlLogic>
   <tlLogic id="1492679731" offset="0" programID="0" type="static">
      <phase duration="34.3301152089" state="Gr"/>
      <phase duration="5.44352685029" state="yr"/>
      <phase duration="34.3301152089" state="rG"/>
      <phase duration="5.44352685029" state="ry"/>
   </tlLogic>
   <tlLogic id="1492679738" offset="0" programID="0" type="static">
      <phase duration="33.6134914263" state="G"/>
      <phase duration="3.99715297063" state="y"/>
   </tlLogic>
   <tlLogic id="1492679740" offset="0" programID="0" type="static">
      <phase duration="19.9967467741" state="G"/>
      <phase duration="4.41563697279" state="y"/>
   </tlLogic>
   <tlLogic id="1492679741" offset="0" programID="0" type="static">
      <phase duration="23.4805885445" state="G"/>
      <phase duration="2.18909361839" state="y"/>
   </tlLogic>
   <tlLogic id="1492679747" offset="0" programID="0" type="static">
      <phase duration="22.0902765845" state="Gr"/>
      <phase duration="6.14361262772" state="yr"/>
      <phase duration="22.0902765845" state="rG"/>
      <phase duration="6.14361262772" state="ry"/>
   </tlLogic>
   <tlLogic id="1492729095" offset="0" programID="0" type="static">
      <phase duration="17.1098487466" state="G"/>
      <phase duration="6.7260221828" state="y"/>
   </tlLogic>
   <tlLogic id="1492729097" offset="0" programID="0" type="static">
      <phase duration="27.2943526742" state="Gr"/>
      <phase duration="4.81550503165" state="yr"/>
      <phase duration="27.2943526742" state="rG"/>
      <phase duration="4.81550503165" state="ry"/>
   </tlLogic>
   <tlLogic id="1492729111" offset="0" programID="0" type="static">
      <phase duration="29.0141052733" state="G"/>
      <phase duration="5.32547592965" state="y"/>
   </tlLogic>
   <tlLogic id="1492729114" offset="0" programID="0" type="static">
      <phase duration="22.1838187142" state="Gr"/>
      <phase duration="3.68571659222" state="yr"/>
      <phase duration="22.1838187142" state="rG"/>
      <phase duration="3.68571659222" state="ry"/>
   </tlLogic>
   <tlLogic id="1492802033" offset="0" programID="0" type="static">
      <phase duration="30.6711036534" state="GGrrr"/>
      <phase duration="8.59332582948" state="yyrrr"/>
      <phase duration="30.6711036534" state="rrGrr"/>
      <phase duration="8.59332582948" state="rryrr"/>
      <phase duration="30.6711036534" state="rrrGG"/>
      <phase duration="8.59332582948" state="rrryy"/>
   </tlLogic>
   <tlLogic id="1492802065" offset="0" programID="0" type="static">
      <phase duration="30.8722052672" state="G"/>
      <phase duration="5.72835466147" state="y"/>
   </tlLogic>
   <tlLogic id="1492802066" offset="0" programID="0" type="static">
      <phase duration="14.4897585685" state="Gr"/>
      <phase duration="1.75887247836" state="yr"/>
      <phase duration="14.4897585685" state="rG"/>
      <phase duration="1.75887247836" state="ry"/>
   </tlLogic>
   <tlLogic id="1492802067" offset="0" programID="0" type="static">
      <phase duration="37.4052321176" state="G"/>