<?xml version="1.0" ?>
<tlLogics>
   <tlLogic id="1000099503" offset="0" programID="0" type="static">
      <phase duration="15.8707945764" state="GGGrrrrrrrr"/>
      <phase duration="3.33235331781" state="yyyrrrrrrrr"/>
      <phase duration="15.8707945764" state="rrrGGGrrrrr"/>
      <phase duration="3.33235331781" state="rrryyyrrrrr"/>
      <phase duration="15.8707945764" state="rrrrrrGGGGG"/>
      <phase duration="3.33235331781" state="rrrrrryyyyy"/>
   </tlLogic>
   <tlLogic id="1000099551" offset="0" programID="0" type="static">
      <phase duration="25.8704454195" state="G"/>
      <phase duration="4.8206398054" state="y"/>
   </tlLogic>
   <tlLogic id="1000099553" offset="0" programID="0" type="static">
      <phase duration="20.3577665048" state="Gr"/>
      <phase duration="5.50914967552" state="yr"/>
      <phase duration="20.3577665048" state="rG"/>
      <phase duration="5.50914967552" state="ry"/>
   </tlLogic>
   <tlLogic id="1000099591" offset="0" programID="0" type="static">
      <phase duration="28.216578762" state="GGrr"/>
      <phase duration="8.29571174548" state="yyrr"/>
      <phase duration="28.216578762" state="rrGG"/>
      <phase duration="8.29571174548" state="rryy"/>
   </tlLogic>
   <tlLogic id="1000099607" offset="0" programID="0" type="static">
      <phase duration="28.2129679907" state="GGr"/>
      <phase duration="9.496821032" state="yyr"/>
      <phase duration="28.2129679907" state="rrG"/>
      <phase duration="9.496821032" state="rry"/>
   </tlLogic>
   <tlLogic id="1000099650" offset="0" programID="0" type="static">
      <phase duration="16.5275847107" state="G"/>
      <phase duration="6.67221796298" state="y"/>
   </tlLogic>
   <tlLogic id="1000099651" offset="0" programID="0" type="static">
      <phase duration="17.8326285358" state="GGrrrr"/>
      <phase duration="3.03790415476" state="yyrrrr"/>
      <phase duration="17.8326285358" state="rrGGrr"/>
      <phase duration="3.03790415476" state="rryyrr"/>
      <phase duration="17.8326285358" state="rrrrGG"/>
      <phase duration="3.03790415476" state="rrrryy"/>
   </tlLogic>
   <tlLogic id="1000099741" offset="0" programID="0" type="static">
      <phase duration="15.0954373961" state="GGrr"/>
      <phase duration="5.94162721913" state="yyrr"/>
      <phase duration="15.0954373961" state="rrGG"/>
      <phase duration="5.94162721913" state="rryy"/>
   </tlLogic>
   <tlLogic id="1012321573" offset="0" programID="0" type="static">
      <phase duration="17.5432778826" state="Gr"/>
      <phase duration="8.57164259528" state="yr"/>
      <phase duration="17.5432778826" state="rG"/>
      <phase duration="8.57164259528" state="ry"/>
   </tlLogic>
   <tlLogic id="1012321580" offset="0" programID="0" type="static">
      <phase duration="21.3663484008" state="Gr"/>
      <phase duration="2.9463424969" state="yr"/>
      <phase duration="21.3663484008" state="rG"/>
      <phase duration="2.9463424969" state="ry"/>
   </tlLogic>
   <tlLogic id="1037290822" offset="0" programID="0" type="static">
      <phase duration="10.3320342903" state="GGrr"/>
      <phase duration="5.71564952384" state="yyrr"/>
      <phase duration="10.3320342903" state="rrGG"/>
      <phase duration="5.71564952384" state="rryy"/>
   </tlLogic>
   <tlLogic id="1037290889" offset="0" programID="0" type="static">
      <phase duration="30.7196471294" state="GGrr"/>
      <phase duration="8.03999703312" state="yyrr"/>
      <phase duration="30.7196471294" state="rrGG"/>
      <phase duration="8.03999703312" state="rryy"/>
   </tlLogic>
   <tlLogic id="1037290915" offset="0" programID="0" type="static">
      <phase duration="18.2224674364" state="GGrrr"/>
      <phase duration="4.54897860592" state="yyrrr"/>
      <phase duration="18.2224674364" state="rrGGG"/>
      <phase duration="4.54897860592" state="rryyy"/>
   </tlLogic>
   <tlLogic id="1040964328" offset="0" programID="0" type="static">
      <phase duration="29.7038945778" state="Gr"/>
      <phase duration="4.9897767052" state="yr"/>
      <phase duration="29.7038945778" state="rG"/>
      <phase duration="4.9897767052" state="ry"/>
   </tlLogic>
   <tlLogic id="1040964333" offset="0" programID="0" type="static">
      <phase duration="30.6037186016" state="Gr"/>
      <phase duration="3.73957691257" state="yr"/>
      <phase duration="30.6037186016" state="rG"/>
      <phase duration="3.73957691257" state="ry"/>
   </tlLogic>
   <tlLogic id="1045044715" offset="0" programID="0" type="static">
      <phase duration="11.9533556293" state="Gr"/>
      <phase duration="7.12629975569" state="yr"/>
      <phase duration="11.9533556293" state="rG"/>
      <phase duration="7.12629975569" state="ry"/>
   </tlLogic>
   <tlLogic id="1045044750" offset="0" programID="0" type="static">
      <phase duration="30.5564354248" state="Gr"/>
      <phase duration="8.04575993632" state="yr"/>
      <phase duration="30.5564354248" state="rG"/>
      <phase duration="8.04575993632" state="ry"/>
   </tlLogic>
   <tlLogic id="1045044796" offset="0" programID="0" type="static">
      <phase duration="23.2431114782" state="Gr"/>
      <phase duration="4.88239523171" state="yr"/>
      <phase duration="23.2431114782" state="rG"/>
      <phase duration="4.88239523171" state="ry"/>
   </tlLogic>
   <tlLogic id="1045044863" offset="0" programID="0" type="static">
      <phase duration="18.0528936777" state="G"/>
      <phase duration="3.95702419046" state="y"/>
   </tlLogic>
   <tlLogic id="1062771951" offset="0" programID="0" type="static">
      <phase duration="9.9228581612" state="GGrr"/>
      <phase duration="4.5905674784" state="yyrr"/>
      <phase duration="9.9228581612" state="rrGG"/>
      <phase duration="4.5905674784" state="rryy"/>
   </tlLogic>
   <tlLogic id="1109589944" offset="0" programID="0" type="static">
      <phase duration="9.14768143985" state="GGGrrrrrr"/>
      <phase duration="6.54034440061" state="yyyrrrrrr"/>
      <phase duration="9.14768143985" state="rrrGGGrrr"/>
      <phase duration="6.54034440061" state="rrryyyrrr"/>
      <phase duration="9.14768143985" state="rrrrrrGGG"/>
      <phase duration="6.54034440061" state="rrrrrryyy"/>
   </tlLogic>
   <tlLogic id="1109589987" offset="0" programID="0" type="static">
      <phase duration="31.6026034403" state="GGrr"/>
      <phase duration="7.10423598128" state="yyrr"/>
      <phase duration="31.6026034403" state="rrGG"/>
      <phase duration="7.10423598128" state="rryy"/>
   </tlLogic>
   <tlLogic id="1123630986" offset="0" programID="0" type="static">
      <phase duration="24.6953088004" state="G"/>
      <phase duration="4.42591831183" state="y"/>
   </tlLogic>
   <tlLogic id="1149210260" offset="0" programID="0" type="static">
      <phase duration="20.1368448605" state="Gr"/>
      <phase duration="3.12593606896" state="yr"/>
      <phase duration="20.1368448605" state="rG"/>
      <phase duration="3.12593606896" state="ry"/>
   </tlLogic>
   <tlLogic id="1150667539" offset="0" programID="0" type="static">
      <phase duration="19.089549337" state="G"/>
      <phase duration="5.41193871507" state="y"/>
   </tlLogic>
   <tlLogic id="1150667540" offset="0" programID="0" type="static">
      <phase duration="24.1518444876" state="G"/>
      <phase duration="6.42615772403" state="y"/>
   </tlLogic>
   <tlLogic id="1150667552" offset="0" programID="0" type="static">
      <phase duration="20.1815695153" state="Gr"/>
      <phase duration="5.37322368295" state="yr"/>
      <phase duration="20.1815695153" state="rG"/>
      <phase duration="5.37322368295" state="ry"/>
   </tlLogic>
   <tlLogic id="1150667555" offset="0" programID="0" type="static">
      <phase duration="20.5208502411" state="Gr"/>
      <phase duration="6.67793200697" state="yr"/>
      <phase duration="20.5208502411" state="rG"/>
      <phase duration="6.67793200697" state="ry"/>
   </tlLogic>
   <tlLogic id="1150667560" offset="0" programID="0" type="static">
      <phase duration="14.9228961717" state="G"/>
      <phase duration="1.81009059405" state="y"/>
   </tlLogic>
   <tlLogic id="1150667571" offset="0" programID="0" type="static">
      <phase duration="9.76251437939" state="G"/>
      <phase duration="4.66131793205" state="y"/>
   </tlLogic>
   <tlLogic id="1150667608" offset="0" programID="0" type="static">
      <phase duration="34.8591264905" state="Gr"/>
      <phase duration="2.22850549177" state="yr"/>
      <phase duration="34.8591264905" state="rG"/>
      <phase duration="2.22850549177" state="ry"/>
   </tlLogic>
   <tlLogic id="1150667618" offset="0" programID="0" type="static">
      <phase duration="33.3264956339" state="G"/>
      <phase duration="3.76339995767" state="y"/>
   </tlLogic>
   <tlLogic id="1156723834" offset="0" programID="0" type="static">
      <phase duration="24.6614525925" state="G"/>
      <phase duration="5.97535805331" state="y"/>
   </tlLogic>
   <tlLogic id="1156723839" offset="0" programID="0" type="static">
      <phase duration="26.7252014369" state="Gr"/>
      <phase duration="3.97393063463" state="yr"/>
      <phase duration="26.7252014369" state="rG"/>
      <phase duration="3.97393063463" state="ry"/>
   </tlLogic>
   <tlLogic id="1201745409" offset="0" programID="0" type="static">
      <phase duration="33.0024843934" state="G"/>
      <phase duration="4.2572540139" state="y"/>
   </tlLogic>
   <tlLogic id="1211136497" offset="0" programID="0" type="static">
      <phase duration="23.2648251693" state="GGrr"/>
      <phase duration="6.14522185054" state="yyrr"/>
      <phase duration="23.2648251693" state="rrGG"/>
      <phase duration="6.14522185054" state="rryy"/>
   </tlLogic>
   <tlLogic id="1211136595" offset="0" programID="0" type="static">
      <phase duration="33.1083525349" state="G"/>
      <phase duration="5.97365980473" state="y"/>
   </tlLogic>
   <tlLogic id="1220020545" offset="0" programID="0" type="static">
      <phase duration="21.2655942564" state="GGrrr"/>
      <phase duration="3.69776804486" state="yyrrr"/>
      <phase duration="21.2655942564" state="rrGrr"/>
      <phase duration="3.69776804486" state="rryrr"/>
      <phase duration="21.2655942564" state="rrrGG"/>
      <phase duration="3.69776804486" state="rrryy"/>
   </tlLogic>
   <tlLogic id="1220020588" offset="0" programID="0" type="static">
      <phase duration="23.6049705621" state="GGrr"/>
      <phase duration="3.71588531736" state="yyrr"/>
      <phase duration="23.6049705621" state="rrGG"/>
      <phase duration="3.71588531736" state="rryy"/>
   </tlLogic>
   <tlLogic id="1220020607" offset="0" programID="0" type="static">
      <phase duration="30.0117978311" state="GGrr"/>
      <phase duration="8.15012147827" state="yyrr"/>
      <phase duration="30.0117978311" state="rrGG"/>
      <phase duration="8.15012147827" state="rryy"/>
   </tlLogic>
   <tlLogic id="1220020679" offset="0" programID="0" type="static">
      <phase duration="38.1498426842" state="GGrr"/>
      <phase duration="4.37251427897" state="yyrr"/>
      <phase duration="38.1498426842" state="rrGG"/>
      <phase duration="4.37251427897" state="rryy"/>
   </tlLogic>
   <tlLogic id="1229522462" offset="0" programID="0" type="static">
      <phase duration="10.8418878221" state="G"/>
      <phase duration="3.63063616297" state="y"/>
   </tlLogic>
   <tlLogic id="1229522552" offset="0" programID="0" type="static">
      <phase duration="10.7854738942" state="G"/>
      <phase duration="7.45077016237" state="y"/>
   </tlLogic>
   <tlLogic id="1252285082" offset="0" programID="0" type="static">
      <phase duration="21.7714821803" state="G"/>
      <phase duration="9.21767520933" state="y"/>
   </tlLogic>
   <tlLogic id="1252285085" offset="0" programID="0" type="static">
      <phase duration="21.6951219786" state="Gr"/>
      <phase duration="1.75263804163" state="yr"/>
      <phase duration="21.6951219786" state="rG"/>
      <phase duration="1.75263804163" state="ry"/>
   </tlLogic>
   <tlLogic id="1252285087" offset="0" programID="0" type="static"/>
   <tlLogic id="1252285092" offset="0" programID="0" type="static">
      <phase duration="22.9870770691" state="G"/>
      <phase duration="6.09816674067" state="y"/>
   </tlLogic>
   <tlLogic id="1252285107" offset="0" programID="0" type="static">
      <phase duration="28.950459286" state="G"/>
      <phase duration="3.1012186574" state="y"/>
   </tlLogic>
   <tlLogic id="1252285137" offset="0" programID="0" type="static">
      <phase duration="5.86340409504" state="Gr"/>
      <phase duration="4.26328352204" state="yr"/>
      <phase duration="5.86340409504" state="rG"/>
      <phase duration="4.26328352204" state="ry"/>
   </tlLogic>
   <tlLogic id="1258258237" offset="0" programID="0" type="static">
      <phase duration="13.4871064257" state="GGr"/>
      <phase duration="7.80000918026" state="yyr"/>
      <phase duration="13.4871064257" state="rrG"/>
      <phase duration="7.80000918026" state="rry"/>
   </tlLogic>
   <tlLogic id="1271504738" offset="0" programID="0" type="static">
      <phase duration="19.4985284976" state="Gr"/>
      <phase duration="4.91966590855" state="yr"/>
      <phase duration="19.4985284976" state="rG"/>
      <phase duration="4.91966590855" state="ry"/>
   </tlLogic>
   <tlLogic id="1271504747" offset="0" programID="0" type="static">
      <phase duration="12.1454183931" state="Gr"/>
      <phase duration="4.20263709481" state="yr"/>
      <phase duration="12.1454183931" state="rG"/>
      <phase duration="4.20263709481" state="ry"/>
   </tlLogic>
   <tlLogic id="1271504750" offset="0" programID="0" type="static">
      <phase duration="28.3073280256" state="G"/>
      <phase duration="7.44628797194" state="y"/>
   </tlLogic>
   <tlLogic id="1271504755" offset="0" programID="0" type="static">
      <phase duration="22.4871436427" state="GGrrr"/>
      <phase duration="6.44555501904" state="yyrrr"/>
      <phase duration="22.4871436427" state="rrGrr"/>
      <phase duration="6.44555501904" state="rryrr"/>
      <phase duration="22.4871436427" state="rrrGG"/>
      <phase duration="6.44555501904" state="rrryy"/>
   </tlLogic>
   <tlLogic id="1271504758" offset="0" programID="0" type="static">
      <phase duration="28.7438507182" state="G"/>
      <phase duration="7.4041217977" state="y"/>
   </tlLogic>
   <tlLogic id="1271504762" offset="0" programID="0" type="static">
      <phase duration="11.6479531036" state="G"/>
      <phase duration="5.65896016955" state="y"/>
   </tlLogic>
   <tlLogic id="1271504764" offset="0" programID="0" type="static">
      <phase duration="14.0368761143" state="G"/>
      <phase duration="5.19176265675" state="y"/>
   </tlLogic>
   <tlLogic id="1271504766" offset="0" programID="0" type="static">
      <phase duration="12.6705936364" state="Gr"/>
      <phase duration="7.13351322222" state="yr"/>
      <phase duration="12.6705936364" state="rG"/>
      <phase duration="7.13351322222" state="ry"/>
   </tlLogic>
   <tlLogic id="1271504767" offset="0" programID="0" type="static">
      <phase duration="22.4740276651" state="G"/>
      <phase duration="3.0620149977" state="y"/>
   </tlLogic>
   <tlLogic id="1271504773" offset="0" programID="0" type="static">
      <phase duration="35.3154956671" state="GGrrr"/>
      <phase duration="8.30973934641" state="yyrrr"/>
      <phase duration="35.3154956671" state="rrGrr"/>
      <phase duration="8.30973934641" state="rryrr"/>
      <phase duration="35.3154956671" state="rrrGG"/>
      <phase duration="8.30973934641" state="rrryy"/>
   </tlLogic>
   <tlLogic id="1271504781" offset="0" programID="0" type="static">
      <phase duration="32.8680304115" state="GGrrr"/>
      <phase duration="7.05260324323" state="yyrrr"/>
      <phase duration="32.8680304115" state="rrGrr"/>
      <phase duration="7.05260324323" state="rryrr"/>
      <phase duration="32.8680304115" state="rrrGG"/>
      <phase duration="7.05260324323" state="rrryy"/>
   </tlLogic>
   <tlLogic id="1271504788" offset="0" programID="0" type="static">
      <phase duration="24.9733522402" state="GGrrr"/>
      <phase duration="6.72562168286" state="yyrrr"/>
      <phase duration="24.9733522402" state="rrGGG"/>
      <phase duration="6.72562168286" state="rryyy"/>
   </tlLogic>
   <tlLogic id="1271504795" offset="0" programID="0" type="static">
      <phase duration="14.8569426308" state="G"/>
      <phase duration="5.43662865945" state="y"/>
   </tlLogic>
   <tlLogic id="1271504801" offset="0" programID="0" type="static">
      <phase duration="18.9381848791" state="G"/>
      <phase duration="7.45463238562" state="y"/>
   </tlLogic>
   <tlLogic id="1271504812" offset="0" programID="0" type="static">
      <phase duration="6.00121825225" state="G"/>
      <phase duration="6.92926311503" state="y"/>
   </tlLogic>
   <tlLogic id="1271504813" offset="0" programID="0" type="static">
      <phase duration="15.1696207454" state="G"/>
      <phase duration="4.41694166569" state="y"/>
   </tlLogic>
   <tlLogic id="1271504815" offset="0" programID="0" type="static">
      <phase duration="26.4047420587" state="Gr"/>
      <phase duration="4.32437357368" state="yr"/>
      <phase duration="26.4047420587" state="rG"/>
      <phase duration="4.32437357368" state="ry"/>
   </tlLogic>
   <tlLogic id="1271504824" offset="0" programID="0" type="static">
      <phase duration="23.6744542483" state="G"/>
      <phase duration="7.96502797242" state="y"/>
   </tlLogic>
   <tlLogic id="1271504827" offset="0" programID="0" type="static">
      <phase duration="30.550752595" state="Gr"/>
      <phase duration="4.2290109732" state="yr"/>
      <phase duration="30.550752595" state="rG"/>
      <phase duration="4.2290109732" state="ry"/>
   </tlLogic>
   <tlLogic id="1271504828" offset="0" programID="0" type="static">
      <phase duration="30.772219635" state="GGrrr"/>
      <phase duration="5.48618994753" state="yyrrr"/>
      <phase duration="30.772219635" state="rrGrr"/>
      <phase duration="5.48618994753" state="rryrr"/>
      <phase duration="30.772219635" state="rrrGG"/>
      <phase duration="5.48618994753" state="rrryy"/>
   </tlLogic>
   <tlLogic id="1271504829" offset="0" programID="0" type="static">
      <phase duration="23.7183502646" state="Gr"/>
      <phase duration="8.11797655054" state="yr"/>
      <phase duration="23.7183502646" state="rG"/>
      <phase duration="8.11797655054" state="ry"/>
   </tlLogic>
   <tlLogic id="1271504834" offset="0" programID="0" type="static">
      <phase duration="17.0974507928" state="G"/>
      <phase duration="6.20251744152" state="y"/>
   </tlLogic>
   <tlLogic id="1271504838" offset="0" programID="0" type="static">
      <phase duration="16.8309512854" state="GGrrr"/>
      <phase duration="5.40328836232" state="yyrrr"/>
      <phase duration="16.8309512854" state="rrGGr"/>
      <phase duration="5.40328836232" state="rryyr"/>
      <phase duration="16.8309512854" state="rrrrG"/>
      <phase duration="5.40328836232" state="rrrry"/>
   </tlLogic>
   <tlLogic id="1271504841" offset="0" programID="0" type="static">
      <phase duration="20.3286584728" state="G"/>
      <phase duration="7.38830704746" state="y"/>
   </tlLogic>
   <tlLogic id="1271504844" offset="0" programID="0" type="static">
      <phase duration="20.3761725786" state="G"/>
      <phase duration="9.56363071889" state="y"/>
   </tlLogic>
   <tlLogic id="1271504850" offset="0" programID="0" type="static">
      <phase duration="13.8143841837" state="Gr"/>
      <phase duration="6.01829493317" state="yr"/>
      <phase duration="13.8143841837" state="rG"/>
      <phase duration="6.01829493317" state="ry"/>
   </tlLogic>
   <tlLogic id="1271504851" offset="0" programID="0" type="static">
      <phase duration="13.708115142" state="G"/>
      <phase duration="4.4737684395" state="y"/>
   </tlLogic>
   <tlLogic id="1271504861" offset="0" programID="0" type="static">
      <phase duration="22.4413269565" state="G"/>
      <phase duration="7.67385371685" state="y"/>
   </tlLogic>
   <tlLogic id="1271504866" offset="0" programID="0" type="static">
      <phase duration="20.4225658291" state="G"/>
      <phase duration="8.22297685647" state="y"/>
   </tlLogic>
   <tlLogic id="1271504867" offset="0" programID="0" type="static">
      <phase duration="6.88535152549" state="G"/>
      <phase duration="6.51913750644" state="y"/>
   </tlLogic>
   <tlLogic id="1271504868" offset="0" programID="0" type="static">
      <phase duration="25.9022813441" state="Gr"/>
      <phase duration="5.91379777354" state="yr"/>
      <phase duration="25.9022813441" state="rG"/>
      <phase duration="5.91379777354" state="ry"/>
   </tlLogic>
   <tlLogic id="1271504870" offset="0" programID="0" type="static">
      <phase duration="27.3670023653" state="G"/>
      <phase duration="8.0112603515" state="y"/>
   </tlLogic>
   <tlLogic id="1271504871" offset="0" programID="0" type="static">
      <phase duration="8.93100612995" state="GGrr"/>
      <phase duration="2.58620918198" state="yyrr"/>
      <phase duration="8.93100612995" state="rrGG"/>
      <phase duration="2.58620918198" state="rryy"/>
   </tlLogic>
   <tlLogic id="1271504874" offset="0" programID="0" type="static">
      <phase duration="36.1879759237" state="G"/>
      <phase duration="7.56938433707" state="y"/>
   </tlLogic>
   <tlLogic id="1271504881" offset="0" programID="0" type="static">
      <phase duration="33.8161105442" state="GGrrr"/>
      <phase duration="5.33084516642" state="yyrrr"/>
      <phase duration="33.8161105442" state="rrGrr"/>
      <phase duration="5.33084516642" state="rryrr"/>
      <phase duration="33.8161105442" state="rrrGG"/>
      <phase duration="5.33084516642" state="rrryy"/>
   </tlLogic>
   <tlLogic id="1271504887" offset="0" programID="0" type="static">
      <phase duration="23.0500849606" state="G"/>
      <phase duration="4.78579486546" state="y"/>
   </tlLogic>
   <tlLogic id="1271504895" offset="0" programID="0" type="static">
      <phase duration="17.6758144034" state="GGrrr"/>
      <phase duration="5.99285474787" state="yyrrr"/>
      <phase duration="17.6758144034" state="rrGrr"/>
      <phase duration="5.99285474787" state="rryrr"/>
      <phase duration="17.6758144034" state="rrrGG"/>
      <phase duration="5.99285474787" state="rrryy"/>
   </tlLogic>
   <tlLogic id="1271504898" offset="0" programID="0" type="static">
      <phase duration="13.7636745555" state="Gr"/>
      <phase duration="4.84174736815" state="yr"/>
      <phase duration="13.7636745555" state="rG"/>
      <phase duration="4.84174736815" state="ry"/>
   </tlLogic>
   <tlLogic id="1271504899" offset="0" programID="0" type="static">
      <phase duration="5.38783328929" state="G"/>
      <phase duration="3.08053498417" state="y"/>
   </tlLogic>
   <tlLogic id="1271504901" offset="0" programID="0" type="static">
      <phase duration="31.6517964343" state="GGrrr"/>
      <phase duration="4.86154186945" state="yyrrr"/>
      <phase duration="31.6517964343" state="rrGrr"/>
      <phase duration="4.86154186945" state="rryrr"/>
      <phase duration="31.6517964343" state="rrrGG"/>
      <phase duration="4.86154186945" state="rrryy"/>
   </tlLogic>
   <tlLogic id="1271504905" offset="0" programID="0" type="static">
      <phase duration="12.0852707397" state="G"/>
      <phase duration="7.34692235405" state="y"/>
   </tlLogic>
   <tlLogic id="1271504908" offset="0" programID="0" type="static">
      <phase duration="14.8179661767" state="G"/>
      <phase duration="5.10223172875" state="y"/>
   </tlLogic>
   <tlLogic id="1271504913" offset="0" programID="0" type="static">
      <phase duration="16.7994000902" state="GGrrr"/>
      <phase duration="6.30343126254" state="yyrrr"/>
      <phase duration="16.7994000902" state="rrGGr"/>
      <phase duration="6.30343126254" state="rryyr"/>
      <phase duration="16.7994000902" state="rrrrG"/>
      <phase duration="6.30343126254" state="rrrry"/>
   </tlLogic>
   <tlLogic id="1271504914" offset="0" programID="0" type="static">
      <phase duration="31.778570472" state="G"/>
      <phase duration="8.50431541581" state="y"/>
   </tlLogic>
   <tlLogic id="1271504918" offset="0" programID="0" type="static">
      <phase duration="20.3822509578" state="G"/>
      <phase duration="6.72998254206" state="y"/>
   </tlLogic>
   <tlLogic id="1298727142" offset="0" programID="0" type="static">
      <phase duration="7.51180960429" state="Gr"/>
      <phase duration="4.26312242164" state="yr"/>
      <phase duration="7.51180960429" state="rG"/>
      <phase duration="4.26312242164" state="ry"/>
   </tlLogic>
   <tlLogic id="1299369677" offset="0" programID="0" type="static">
      <phase duration="36.6786017852" state="G"/>
      <phase duration="6.66203932605" state="y"/>
   </tlLogic>
   <tlLogic id="1299369679" offset="0" programID="0" type="static">
      <phase duration="18.3836179059" state="G"/>
      <phase duration="3.59033033194" state="y"/>
   </tlLogic>
   <tlLogic id="1299369684" offset="0" programID="0" type="static">
      <phase duration="18.4059380476" state="G"/>
      <phase duration="5.9820685366" state="y"/>
   </tlLogic>
   <tlLogic id="1299369686" offset="0" programID="0" type="static">
      <phase duration="7.67701296788" state="G"/>
      <phase duration="6.34212953174" state="y"/>
   </tlLogic>
   <tlLogic id="1299369694" offset="0" programID="0" type="static">
      <phase duration="18.6590221337" state="G"/>
      <phase duration="7.98088697165" state="y"/>
   </tlLogic>
   <tlLogic id="1299369699" offset="0" programID="0" type="static">
      <phase duration="18.524725333" state="G"/>
      <phase duration="6.22698117987" state="y"/>
   </tlLogic>
   <tlLogic id="1299369701" offset="0" programID="0" type="static">
      <phase duration="35.6323941038" state="GGrrr"/>
      <phase duration="7.38217318503" state="yyrrr"/>
      <phase duration="35.6323941038" state="rrGrr"/>
      <phase duration="7.38217318503" state="rryrr"/>
      <phase duration="35.6323941038" state="rrrGG"/>
      <phase duration="7.38217318503" state="rrryy"/>
   </tlLogic>
   <tlLogic id="1312440659" offset="0" programID="0" type="static">
      <phase duration="11.2066880931" state="GGrrr"/>
      <phase duration="7.31404449527" state="yyrrr"/>
      <phase duration="11.2066880931" state="rrGrr"/>
      <phase duration="7.31404449527" state="rryrr"/>
      <phase duration="11.2066880931" state="rrrGG"/>
      <phase duration="7.31404449527" state="rrryy"/>
   </tlLogic>
   <tlLogic id="1312812204" offset="0" programID="0" type="static">
      <phase duration="15.4699507788" state="G"/>
      <phase duration="5.98685843854" state="y"/>
   </tlLogic>
   <tlLogic id="1360932319" offset="0" programID="0" type="static"/>
   <tlLogic id="1366801185" offset="0" programID="0" type="static">
      <phase duration="21.0932614263" state="G"/>
      <phase duration="6.55634682277" state="y"/>
   </tlLogic>
   <tlLogic id="1366801190" offset="0" programID="0" type="static"/>
   <tlLogic id="1366801194" offset="0" programID="0" type="static"/>
   <tlLogic id="1366801200" offset="0" programID="0" type="static">
      <phase duration="21.6258125361" state="Gr"/>
      <phase duration="4.3390887227" state="yr"/>
      <phase duration="21.6258125361" state="rG"/>
      <phase duration="4.3390887227" state="ry"/>
   </tlLogic>
   <tlLogic id="1366801217" offset="0" programID="0" type="static">
      <phase duration="7.08685173886" state="G"/>
      <phase duration="6.58225766754" state="y"/>
   </tlLogic>
   <tlLogic id="1366801262" offset="0" programID="0" type="static">
      <phase duration="35.5251052779" state="G"/>
      <phase duration="8.56279636102" state="y"/>
   </tlLogic>
   <tlLogic id="1366801267" offset="0" programID="0" type="static">
      <phase duration="32.8191009094" state="Grr"/>
      <phase duration="6.22474500419" state="yrr"/>
      <phase duration="32.8191009094" state="rGr"/>
      <phase duration="6.22474500419" state="ryr"/>
      <phase duration="32.8191009094" state="rrG"/>
      <phase duration="6.22474500419" state="rry"/>
   </tlLogic>
   <tlLogic id="1492679678" offset="0" programID="0" type="static">
      <phase duration="23.8293883492" state="Gr"/>
      <phase duration="5.49804922918" state="yr"/>
      <phase duration="23.8293883492" state="rG"/>
      <phase duration="5.49804922918" state="ry"/>
   </tlLogic>
   <tlLogic id="1492679723" offset="0" programID="0" type="static">
      <phase duration="20.2123863682" state="GGrrr"/>
      <phase duration="4.51581165161" state="yyrrr"/>
      <phase duration="20.2123863682" state="rrGrr"/>
      <phase duration="4.51581165161" state="rryrr"/>
      <phase duration="20.2123863682" state="rrrGG"/>
      <phase duration="4.51581165161" state="rrryy"/>
   </tlLogic>
   <tlLogic id="1492679729" offset="0" programID="0" type="static">
      <phase duration="26.9505812316" state="G"/>
      <phase duration="6.89363119911" state="y"/>
   </tlLogic>
   <tlLogic id="1492679731" offset="0" programID="0" type="static">
      <phase duration="31.4760869258" state="Gr"/>
      <phase duration="8.77277038465" state="yr"/>
      <phase duration="31.4760869258" state="rG"/>
      <phase duration="8.77277038465" state="ry"/>
   </tlLogic>
   <tlLogic id="1492679741" offset="0" programID="0" type="static">
      <phase duration="31.9857256085" state="G"/>
      <phase duration="4.93402939674" state="y"/>
   </tlLogic>
   <tlLogic id="1492679753" offset="0" programID="0" type="static">
      <phase duration="16.5132018078" state="G"/>
      <phase duration="3.71716286768" state="y"/>
   </tlLogic>
   <tlLogic id="1492729111" offset="0" programID="0" type="static">
      <phase duration="29.3060244616" state="G"/>
      <phase duration="5.74118784788" state="y"/>
   </tlLogic>
   <tlLogic id="1492729114" offset="0" programID="0" type="static">
      <phase duration="12.3290427469" state="Gr"/>