<?xml version="1.0" ?>
<tlLogics>
   <tlLogic id="1000099468" offset="0" programID="0" type="static">
      <phase duration="22.7258410251" state="G"/>
      <phase duration="2.6634674576" state="y"/>
   </tlLogic>
   <tlLogic id="1000099475" offset="0" programID="0" type="static">
      <phase duration="15.9475452321" state="GG"/>
      <phase duration="5.34800187977" state="yy"/>
   </tlLogic>
   <tlLogic id="1000099490" offset="0" programID="0" type="static">
      <phase duration="27.1758967646" state="Gr"/>
      <phase duration="4.97269356562" state="yr"/>
      <phase duration="27.1758967646" state="rG"/>
      <phase duration="4.97269356562" state="ry"/>
   </tlLogic>
   <tlLogic id="1000099503" offset="0" programID="0" type="static">
      <phase duration="21.4015040777" state="GGGrrrrrrrr"/>
      <phase duration="7.41471946702" state="yyyrrrrrrrr"/>
      <phase duration="21.4015040777" state="rrrGGGrrrrr"/>
      <phase duration="7.41471946702" state="rrryyyrrrrr"/>
      <phase duration="21.4015040777" state="rrrrrrGGGGG"/>
      <phase duration="7.41471946702" state="rrrrrryyyyy"/>
   </tlLogic>
   <tlLogic id="1000099551" offset="0" programID="0" type="static">
      <phase duration="33.1025001541" state="G"/>
      <phase duration="3.46674619175" state="y"/>
   </tlLogic>
   <tlLogic id="1000099553" offset="0" programID="0" type="static">
      <phase duration="26.3626827859" state="Gr"/>
      <phase duration="5.99473003244" state="yr"/>
      <phase duration="26.3626827859" state="rG"/>
      <phase duration="5.99473003244" state="ry"/>
   </tlLogic>
   <tlLogic id="1000099576" offset="0" programID="0" type="static">
      <phase duration="12.2214714748" state="Grrrr"/>
      <phase duration="5.69987067855" state="yrrrr"/>
      <phase duration="12.2214714748" state="rGGrr"/>
      <phase duration="5.69987067855" state="ryyrr"/>
      <phase duration="12.2214714748" state="rrrGG"/>
      <phase duration="5.69987067855" state="rrryy"/>
   </tlLogic>
   <tlLogic id="1000099607" offset="0" programID="0" type="static">
      <phase duration="31.8065643019" state="GGr"/>
      <phase duration="8.23936547297" state="yyr"/>
      <phase duration="31.8065643019" state="rrG"/>
      <phase duration="8.23936547297" state="rry"/>
   </tlLogic>
   <tlLogic id="1000099651" offset="0" programID="0" type="static">
      <phase duration="12.1293359246" state="GGrrrr"/>
      <phase duration="3.11727699234" state="yyrrrr"/>
      <phase duration="12.1293359246" state="rrGGrr"/>
      <phase duration="3.11727699234" state="rryyrr"/>
      <phase duration="12.1293359246" state="rrrrGG"/>
      <phase duration="3.11727699234" state="rrrryy"/>
   </tlLogic>
   <tlLogic id="1000099741" offset="0" programID="0" type="static">
      <phase duration="12.650667949" state="GGrr"/>
      <phase duration="5.6120001961" state="yyrr"/>
      <phase duration="12.650667949" state="rrGG"/>
      <phase duration="5.6120001961" state="rryy"/>
   </tlLogic>
   <tlLogic id="1012321580" offset="0" programID="0" type="static">
      <phase duration="17.219803342" state="Gr"/>
      <phase duration="2.55924367386" state="yr"/>
      <phase duration="17.219803342" state="rG"/>
      <phase duration="2.55924367386" state="ry"/>
   </tlLogic>
   <tlLogic id="1012326820" offset="0" programID="0" type="static">
      <phase duration="19.401024421" state="G"/>
      <phase duration="2.06942373727" state="y"/>
   </tlLogic>
   <tlLogic id="1028832186" offset="0" programID="0" type="static"/>
   <tlLogic id="1028832536" offset="0" programID="0" type="static"/>
   <tlLogic id="1037290808" offset="0" programID="0" type="static">
      <phase duration="15.5830748646" state="GGGrrrrrr"/>
      <phase duration="7.79447017233" state="yyyrrrrrr"/>
      <phase duration="15.5830748646" state="rrrGGGrrr"/>
      <phase duration="7.79447017233" state="rrryyyrrr"/>
      <phase duration="15.5830748646" state="rrrrrrGGG"/>
      <phase duration="7.79447017233" state="rrrrrryyy"/>
   </tlLogic>
   <tlLogic id="1037290822" offset="0" programID="0" type="static">
      <phase duration="34.7240870233" state="GGrr"/>
      <phase duration="6.22074767498" state="yyrr"/>
      <phase duration="34.7240870233" state="rrGG"/>
      <phase duration="6.22074767498" state="rryy"/>
   </tlLogic>
   <tlLogic id="1040964333" offset="0" programID="0" type="static">
      <phase duration="15.2684511027" state="Gr"/>
      <phase duration="5.04318248002" state="yr"/>
      <phase duration="15.2684511027" state="rG"/>
      <phase duration="5.04318248002" state="ry"/>
   </tlLogic>
   <tlLogic id="1045044750" offset="0" programID="0" type="static">
      <phase duration="14.5033919079" state="Gr"/>
      <phase duration="5.05862524211" state="yr"/>
      <phase duration="14.5033919079" state="rG"/>
      <phase duration="5.05862524211" state="ry"/>
   </tlLogic>
   <tlLogic id="1045044796" offset="0" programID="0" type="static">
      <phase duration="23.9725685486" state="Gr"/>
      <phase duration="7.83124868691" state="yr"/>
      <phase duration="23.9725685486" state="rG"/>
      <phase duration="7.83124868691" state="ry"/>
   </tlLogic>
   <tlLogic id="1045044863" offset="0" programID="0" type="static">
      <phase duration="14.7776381471" state="G"/>
      <phase duration="5.38666819896" state="y"/>
   </tlLogic>
   <tlLogic id="1062771951" offset="0" programID="0" type="static">
      <phase duration="19.3510111956" state="GGrr"/>
      <phase duration="5.43870160989" state="yyrr"/>
      <phase duration="19.3510111956" state="rrGG"/>
      <phase duration="5.43870160989" state="rryy"/>
   </tlLogic>
   <tlLogic id="1109589944" offset="0" programID="0" type="static">
      <phase duration="29.4296067734" state="GGGrrrrrr"/>
      <phase duration="6.40644103574" state="yyyrrrrrr"/>
      <phase duration="29.4296067734" state="rrrGGGrrr"/>
      <phase duration="6.40644103574" state="rrryyyrrr"/>
      <phase duration="29.4296067734" state="rrrrrrGGG"/>
      <phase duration="6.40644103574" state="rrrrrryyy"/>
   </tlLogic>
   <tlLogic id="1125127500" offset="0" programID="0" type="static">
      <phase duration="11.8299803672" state="GG"/>
      <phase duration="7.55456763414" state="yy"/>
   </tlLogic>
   <tlLogic id="1149210260" offset="0" programID="0" type="static">
      <phase duration="25.0169163404" state="Gr"/>
      <phase duration="3.9778644206" state="yr"/>
      <phase duration="25.0169163404" state="rG"/>
      <phase duration="3.9778644206" state="ry"/>
   </tlLogic>
   <tlLogic id="1150667540" offset="0" programID="0" type="static">
      <phase duration="18.834890365" state="G"/>
      <phase duration="6.63733281201" state="y"/>
   </tlLogic>
   <tlLogic id="1150667558" offset="0" programID="0" type="static">
      <phase duration="15.6920006931" state="Gr"/>
      <phase duration="5.11634024575" state="yr"/>
      <phase duration="15.6920006931" state="rG"/>
      <phase duration="5.11634024575" state="ry"/>
   </tlLogic>
   <tlLogic id="1150667560" offset="0" programID="0" type="static">
      <phase duration="16.3805043955" state="G"/>
      <phase duration="4.69602050292" state="y"/>
   </tlLogic>
   <tlLogic id="1150667571" offset="0" programID="0" type="static">
      <phase duration="23.174077043" state="G"/>
      <phase duration="5.8611295882" state="y"/>
   </tlLogic>
   <tlLogic id="1150667586" offset="0" programID="0" type="static">
      <phase duration="13.5672990775" state="G"/>
      <phase duration="5.35975359793" state="y"/>
   </tlLogic>
   <tlLogic id="1150667608" offset="0" programID="0" type="static">
      <phase duration="29.553120568" state="Gr"/>
      <phase duration="5.46159295892" state="yr"/>
      <phase duration="29.553120568" state="rG"/>
      <phase duration="5.46159295892" state="ry"/>
   </tlLogic>
   <tlLogic id="1150667622" offset="0" programID="0" type="static">
      <phase duration="27.2610048714" state="G"/>
      <phase duration="5.5811531074" state="y"/>
   </tlLogic>
   <tlLogic id="1156723839" offset="0" programID="0" type="static">
      <phase duration="14.2070887829" state="Gr"/>
      <phase duration="4.50502159192" state="yr"/>
      <phase duration="14.2070887829" state="rG"/>
      <phase duration="4.50502159192" state="ry"/>
   </tlLogic>
   <tlLogic id="1201745399" offset="0" programID="0" type="static"/>
   <tlLogic id="1211136497" offset="0" programID="0" type="static">
      <phase duration="26.6069689135" state="GGrr"/>
      <phase duration="6.7220069667" state="yyrr"/>
      <phase duration="26.6069689135" state="rrGG"/>
      <phase duration="6.7220069667" state="rryy"/>
   </tlLogic>
   <tlLogic id="1211136870" offset="0" programID="0" type="static">
      <phase duration="23.0009801742" state="GGrr"/>
      <phase duration="6.03587996787" state="yyrr"/>
      <phase duration="23.0009801742" state="rrGG"/>
      <phase duration="6.03587996787" state="rryy"/>
   </tlLogic>
   <tlLogic id="1220020505" offset="0" programID="0" type="static">
      <phase duration="18.6112612564" state="G"/>
      <phase duration="6.168577685" state="y"/>
   </tlLogic>
   <tlLogic id="1220020607" offset="0" programID="0" type="static">
      <phase duration="33.0029852279" state="GGrr"/>
      <phase duration="5.33783477317" state="yyrr"/>
      <phase duration="33.0029852279" state="rrGG"/>
      <phase duration="5.33783477317" state="rryy"/>
   </tlLogic>
   <tlLogic id="1220020656" offset="0" programID="0" type="static">
      <phase duration="18.008959611" state="GGrr"/>
      <phase duration="2.86533087117" state="yyrr"/>
      <phase duration="18.008959611" state="rrGG"/>
      <phase duration="2.86533087117" state="rryy"/>
   </tlLogic>
   <tlLogic id="1220020673" offset="0" programID="0" type="static">
      <phase duration="13.7603002992" state="GGGrrrrrr"/>
      <phase duration="7.80044200057" state="yyyrrrrrr"/>
      <phase duration="13.7603002992" state="rrrGGGrrr"/>
      <phase duration="7.80044200057" state="rrryyyrrr"/>
      <phase duration="13.7603002992" state="rrrrrrGGG"/>
      <phase duration="7.80044200057" state="rrrrrryyy"/>
   </tlLogic>
   <tlLogic id="1229522502" offset="0" programID="0" type="static">
      <phase duration="19.4752160346" state="Gr"/>
      <phase duration="4.91158125735" state="yr"/>
      <phase duration="19.4752160346" state="rG"/>
      <phase duration="4.91158125735" state="ry"/>
   </tlLogic>
   <tlLogic id="1229522509" offset="0" programID="0" type="static">
      <phase duration="18.1571939258" state="G"/>
      <phase duration="8.86615288257" state="y"/>
   </tlLogic>
   <tlLogic id="1229522552" offset="0" programID="0" type="static">
      <phase duration="14.7484041402" state="G"/>
      <phase duration="5.00978007729" state="y"/>
   </tlLogic>
   <tlLogic id="1252285082" offset="0" programID="0" type="static">
      <phase duration="12.4654703544" state="G"/>
      <phase duration="6.19833578484" state="y"/>
   </tlLogic>
   <tlLogic id="1252285085" offset="0" programID="0" type="static">
      <phase duration="21.5165339789" state="Gr"/>
      <phase duration="6.03812616474" state="yr"/>
      <phase duration="21.5165339789" state="rG"/>
      <phase duration="6.03812616474" state="ry"/>
   </tlLogic>
   <tlLogic id="1252285087" offset="0" programID="0" type="static"/>
   <tlLogic id="1252285093" offset="0" programID="0" type="static">
      <phase duration="16.4522341149" state="Gr"/>
      <phase duration="3.72100784853" state="yr"/>
      <phase duration="16.4522341149" state="rG"/>
      <phase duration="3.72100784853" state="ry"/>
   </tlLogic>
   <tlLogic id="1252285105" offset="0" programID="0" type="static">
      <phase duration="23.774099105" state="G"/>
      <phase duration="3.3840992466" state="y"/>
   </tlLogic>
   <tlLogic id="1252285107" offset="0" programID="0" type="static">
      <phase duration="23.3520182477" state="G"/>
      <phase duration="6.33499353077" state="y"/>
   </tlLogic>
   <tlLogic id="1252285140" offset="0" programID="0" type="static">
      <phase duration="14.338988171" state="Gr"/>
      <phase duration="7.76169501583" state="yr"/>
      <phase duration="14.338988171" state="rG"/>
      <phase duration="7.76169501583" state="ry"/>
   </tlLogic>
   <tlLogic id="1258258237" offset="0" programID="0" type="static">
      <phase duration="23.9725929226" state="GGr"/>
      <phase duration="7.29813413659" state="yyr"/>
      <phase duration="23.9725929226" state="rrG"/>
      <phase duration="7.29813413659" state="rry"/>
   </tlLogic>
   <tlLogic id="1271504747" offset="0" programID="0" type="static">
      <phase duration="17.582675816" state="Gr"/>
      <phase duration="2.74000537668" state="yr"/>
      <phase duration="17.582675816" state="rG"/>
      <phase duration="2.74000537668" state="ry"/>
   </tlLogic>
   <tlLogic id="1271504750" offset="0" programID="0" type="static">
      <phase duration="33.8455210072" state="G"/>
      <phase duration="8.14737569568" state="y"/>
   </tlLogic>
   <tlLogic id="1271504755" offset="0" programID="0" type="static">
      <phase duration="20.7404806732" state="GGrrr"/>
      <phase duration="8.50580101309" state="yyrrr"/>
      <phase duration="20.7404806732" state="rrGrr"/>
      <phase duration="8.50580101309" state="rryrr"/>
      <phase duration="20.7404806732" state="rrrGG"/>
      <phase duration="8.50580101309" state="rrryy"/>
   </tlLogic>
   <tlLogic id="1271504756" offset="0" programID="0" type="static">
      <phase duration="20.5938315175" state="Gr"/>
      <phase duration="6.02833416696" state="yr"/>
      <phase duration="20.5938315175" state="rG"/>
      <phase duration="6.02833416696" state="ry"/>
   </tlLogic>
   <tlLogic id="1271504757" offset="0" programID="0" type="static">
      <phase duration="18.469289414" state="GGrrr"/>
      <phase duration="2.06722093268" state="yyrrr"/>
      <phase duration="18.469289414" state="rrGrr"/>
      <phase duration="2.06722093268" state="rryrr"/>
      <phase duration="18.469289414" state="rrrGG"/>
      <phase duration="2.06722093268" state="rrryy"/>
   </tlLogic>
   <tlLogic id="1271504758" offset="0" programID="0" type="static">
      <phase duration="13.2919858574" state="G"/>
      <phase duration="5.69019821916" state="y"/>
   </tlLogic>
   <tlLogic id="1271504762" offset="0" programID="0" type="static">
      <phase duration="12.1088612813" state="G"/>
      <phase duration="7.09575041535" state="y"/>
   </tlLogic>
   <tlLogic id="1271504766" offset="0" programID="0" type="static">
      <phase duration="21.9172333935" state="Gr"/>
      <phase duration="7.53435220352" state="yr"/>
      <phase duration="21.9172333935" state="rG"/>
      <phase duration="7.53435220352" state="ry"/>
   </tlLogic>
   <tlLogic id="1271504773" offset="0" programID="0" type="static">
      <phase duration="21.4308157415" state="GGrrr"/>
      <phase duration="4.13185434086" state="yyrrr"/>
      <phase duration="21.4308157415" state="rrGrr"/>
      <phase duration="4.13185434086" state="rryrr"/>
      <phase duration="21.4308157415" state="rrrGG"/>
      <phase duration="4.13185434086" state="rrryy"/>
   </tlLogic>
   <tlLogic id="1271504774" offset="0" programID="0" type="static">
      <phase duration="21.0759220521" state="G"/>
      <phase duration="5.79460824662" state="y"/>
   </tlLogic>
   <tlLogic id="1271504781" offset="0" programID="0" type="static">
      <phase duration="18.3109842677" state="GGrrr"/>
      <phase duration="4.48700020431" state="yyrrr"/>
      <phase duration="18.3109842677" state="rrGrr"/>
      <phase duration="4.48700020431" state="rryrr"/>
      <phase duration="18.3109842677" state="rrrGG"/>
      <phase duration="4.48700020431" state="rrryy"/>
   </tlLogic>
   <tlLogic id="1271504788" offset="0" programID="0" type="static">
      <phase duration="21.9254520715" state="GGrrr"/>
      <phase duration="6.07007354429" state="yyrrr"/>
      <phase duration="21.9254520715" state="rrGGG"/>
      <phase duration="6.07007354429" state="rryyy"/>
   </tlLogic>
   <tlLogic id="1271504801" offset="0" programID="0" type="static">
      <phase duration="11.2056701737" state="G"/>
      <phase duration="5.41956368081" state="y"/>
   </tlLogic>
   <tlLogic id="1271504803" offset="0" programID="0" type="static">
      <phase duration="24.0824298251" state="G"/>
      <phase duration="5.32952247635" state="y"/>
   </tlLogic>
   <tlLogic id="1271504804" offset="0" programID="0" type="static">
      <phase duration="13.6135156568" state="Gr"/>
      <phase duration="5.34639537252" state="yr"/>
      <phase duration="13.6135156568" state="rG"/>
      <phase duration="5.34639537252" state="ry"/>
   </tlLogic>
   <tlLogic id="1271504812" offset="0" programID="0" type="static">
      <phase duration="12.0768762401" state="G"/>
      <phase duration="7.28924967479" state="y"/>
   </tlLogic>
   <tlLogic id="1271504813" offset="0" programID="0" type="static">
      <phase duration="29.3877710664" state="G"/>
      <phase duration="5.78243142761" state="y"/>
   </tlLogic>
   <tlLogic id="1271504815" offset="0" programID="0" type="static">
      <phase duration="27.9019139293" state="Gr"/>
      <phase duration="8.63418067531" state="yr"/>
      <phase duration="27.9019139293" state="rG"/>
      <phase duration="8.63418067531" state="ry"/>
   </tlLogic>
   <tlLogic id="1271504834" offset="0" programID="0" type="static">
      <phase duration="14.5133835099" state="G"/>
      <phase duration="2.68904291729" state="y"/>
   </tlLogic>
   <tlLogic id="1271504836" offset="0" programID="0" type="static">
      <phase duration="33.4357956751" state="G"/>
      <phase duration="2.40311030998" state="y"/>
   </tlLogic>
   <tlLogic id="1271504838" offset="0" programID="0" type="static">
      <phase duration="19.1565284863" state="GGrrr"/>
      <phase duration="2.91083105175" state="yyrrr"/>
      <phase duration="19.1565284863" state="rrGGr"/>
      <phase duration="2.91083105175" state="rryyr"/>
      <phase duration="19.1565284863" state="rrrrG"/>
      <phase duration="2.91083105175" state="rrrry"/>
   </tlLogic>
   <tlLogic id="1271504841" offset="0" programID="0" type="static">
      <phase duration="22.8636197646" state="G"/>
      <phase duration="8.25057977087" state="y"/>
   </tlLogic>
   <tlLogic id="1271504842" offset="0" programID="0" type="static">
      <phase duration="19.4801225086" state="G"/>
      <phase duration="5.73412432992" state="y"/>
   </tlLogic>
   <tlLogic id="1271504844" offset="0" programID="0" type="static">
      <phase duration="21.4893637569" state="G"/>
      <phase duration="5.50144868537" state="y"/>
   </tlLogic>
   <tlLogic id="1271504849" offset="0" programID="0" type="static">
      <phase duration="20.1613485413" state="GGrrr"/>
      <phase duration="4.65301456208" state="yyrrr"/>
      <phase duration="20.1613485413" state="rrGrr"/>
      <phase duration="4.65301456208" state="rryrr"/>
      <phase duration="20.1613485413" state="rrrGG"/>
      <phase duration="4.65301456208" state="rrryy"/>
   </tlLogic>
   <tlLogic id="1271504850" offset="0" programID="0" type="static">
      <phase duration="19.8746002385" state="Gr"/>
      <phase duration="8.16748639882" state="yr"/>
      <phase duration="19.8746002385" state="rG"/>
      <phase duration="8.16748639882" state="ry"/>
   </tlLogic>
   <tlLogic id="1271504858" offset="0" programID="0" type="static">
      <phase duration="34.0350055297" state="G"/>
      <phase duration="4.53614281792" state="y"/>
   </tlLogic>
   <tlLogic id="1271504870" offset="0" programID="0" type="static">
      <phase duration="23.0408416727" state="G"/>
      <phase duration="4.61255098732" state="y"/>
   </tlLogic>
   <tlLogic id="1271504871" offset="0" programID="0" type="static">
      <phase duration="14.7913240626" state="GGrr"/>
      <phase duration="3.84840851449" state="yyrr"/>
      <phase duration="14.7913240626" state="rrGG"/>
      <phase duration="3.84840851449" state="rryy"/>
   </tlLogic>
   <tlLogic id="1271504873" offset="0" programID="0" type="static">
      <phase duration="8.66845185172" state="GGrrr"/>
      <phase duration="6.50753483367" state="yyrrr"/>
      <phase duration="8.66845185172" state="rrGrr"/>
      <phase duration="6.50753483367" state="rryrr"/>
      <phase duration="8.66845185172" state="rrrGG"/>
      <phase duration="6.50753483367" state="rrryy"/>
   </tlLogic>
   <tlLogic id="1271504874" offset="0" programID="0" type="static">
      <phase duration="30.6878033152" state="G"/>
      <phase duration="4.0553564844" state="y"/>
   </tlLogic>
   <tlLogic id="1271504875" offset="0" programID="0" type="static">
      <phase duration="21.5522820526" state="G"/>
      <phase duration="4.14907943781" state="y"/>
   </tlLogic>
   <tlLogic id="1271504878" offset="0" programID="0" type="static">
      <phase duration="21.6064934582" state="G"/>
      <phase duration="5.91237879031" state="y"/>
   </tlLogic>
   <tlLogic id="1271504881" offset="0" programID="0" type="static">
      <phase duration="11.1824655221" state="GGrrr"/>
      <phase duration="4.02125174125" state="yyrrr"/>
      <phase duration="11.1824655221" state="rrGrr"/>
      <phase duration="4.02125174125" state="rryrr"/>
      <phase duration="11.1824655221" state="rrrGG"/>
      <phase duration="4.02125174125" state="rrryy"/>
   </tlLogic>
   <tlLogic id="1271504884" offset="0" programID="0" type="static">
      <phase duration="20.1762928399" state="G"/>
      <phase duration="4.48938204493" state="y"/>
   </tlLogic>
   <tlLogic id="1271504895" offset="0" programID="0" type="static">
      <phase duration="13.2431670702" state="GGrrr"/>
      <phase duration="4.85871897683" state="yyrrr"/>
      <phase duration="13.2431670702" state="rrGrr"/>
      <phase duration="4.85871897683" state="rryrr"/>
      <phase duration="13.2431670702" state="rrrGG"/>
      <phase duration="4.85871897683" state="rrryy"/>
   </tlLogic>
   <tlLogic id="1271504898" offset="0" programID="0" type="static">
      <phase duration="7.77301711796" state="Gr"/>
      <phase duration="2.96330803424" state="yr"/>
      <phase duration="7.77301711796" state="rG"/>
      <phase duration="2.96330803424" state="ry"/>
   </tlLogic>
   <tlLogic id="1271504901" offset="0" programID="0" type="static">
      <phase duration="33.9108649337" state="GGrrr"/>
      <phase duration="6.36083093768" state="yyrrr"/>
      <phase duration="33.9108649337" state="rrGrr"/>
      <phase duration="6.36083093768" state="rryrr"/>
      <phase duration="33.9108649337" state="rrrGG"/>
      <phase duration="6.36083093768" state="rrryy"/>
   </tlLogic>
   <tlLogic id="1271504904" offset="0" programID="0" type="static">
      <phase duration="24.2220759483" state="Grr"/>
      <phase duration="5.7421903024" state="yrr"/>
      <phase duration="24.2220759483" state="rGG"/>
      <phase duration="5.7421903024" state="ryy"/>
   </tlLogic>
   <tlLogic id="1271504905" offset="0" programID="0" type="static">
      <phase duration="12.5871496406" state="G"/>
      <phase duration="8.27703695675" state="y"/>
   </tlLogic>
   <tlLogic id="1271504908" offset="0" programID="0" type="static">
      <phase duration="18.3641351309" state="G"/>
      <phase duration="3.27298617773" state="y"/>
   </tlLogic>
   <tlLogic id="1271504913" offset="0" programID="0" type="static">
      <phase duration="14.8700781537" state="GGrrr"/>
      <phase duration="7.20297156406" state="yyrrr"/>
      <phase duration="14.8700781537" state="rrGGr"/>
      <phase duration="7.20297156406" state="rryyr"/>
      <phase duration="14.8700781537" state="rrrrG"/>
      <phase duration="7.20297156406" state="rrrry"/>
   </tlLogic>
   <tlLogic id="1271504914" offset="0" programID="0" type="static">
      <phase duration="30.4960516693" state="G"/>
      <phase duration="4.60855136923" state="y"/>
   </tlLogic>
   <tlLogic id="1271504918" offset="0" programID="0" type="static">
      <phase duration="17.9071684222" state="G"/>
      <phase duration="3.15833873163" state="y"/>
   </tlLogic>
   <tlLogic id="1298727142" offset="0" programID="0" type="static">
      <phase duration="18.2687360694" state="Gr"/>
      <phase duration="3.34911622048" state="yr"/>
      <phase duration="18.2687360694" state="rG"/>
      <phase duration="3.34911622048" state="ry"/>
   </tlLogic>
   <tlLogic id="1299369677" offset="0" programID="0" type="static">
      <phase duration="18.3254794605" state="G"/>
      <phase duration="2.18016364581" state="y"/>
   </tlLogic>
   <tlLogic id="1299369679" offset="0" programID="0" type="static">
      <phase duration="26.7758820046" state="G"/>
      <phase duration="4.0390664493" state="y"/>
   </tlLogic>
   <tlLogic id="1299369686" offset="0" programID="0" type="static">
      <phase duration="9.70619873428" state="G"/>
      <phase duration="5.30664286393" state="y"/>
   </tlLogic>
   <tlLogic id="1299369689" offset="0" programID="0" type="static">
      <phase duration="23.8719561306" state="GGrrr"/>
      <phase duration="7.34355853516" state="yyrrr"/>
      <phase duration="23.8719561306" state="rrGrr"/>
      <phase duration="7.34355853516" state="rryrr"/>
      <phase duration="23.8719561306" state="rrrGG"/>
      <phase duration="7.34355853516" state="rrryy"/>
   </tlLogic>
   <tlLogic id="1299369694" offset="0" programID="0" type="static">
      <phase duration="29.265415717" state="G"/>
      <phase duration="6.79850834712" state="y"/>
   </tlLogic>
   <tlLogic id="1299369701" offset="0" programID="0" type="static">
      <phase duration="24.0079050882" state="GGrrr"/>
      <phase duration="3.13107965065" state="yyrrr"/>
      <phase duration="24.0079050882" state="rrGrr"/>
      <phase duration="3.13107965065" state="rryrr"/>
      <phase duration="24.0079050882" state="rrrGG"/>
      <phase duration="3.13107965065" state="rrryy"/>
   </tlLogic>
   <tlLogic id="1312440659" offset="0" programID="0" type="static">
      <phase duration="13.4535032074" state="GGrrr"/>
      <phase duration="9.20766148528" state="yyrrr"/>
      <phase duration="13.4535032074" state="rrGrr"/>
      <phase duration="9.20766148528" state="rryrr"/>
      <phase duration="13.4535032074" state="rrrGG"/>
      <phase duration="9.20766148528" state="rrryy"/>
   </tlLogic>
   <tlLogic id="1353566368" offset="0" programID="0" type="static">
      <phase duration="21.2162436642" state="G"/>
      <phase duration="7.65334081519" state="y"/>
   </tlLogic>
   <tlLogic id="1353566371" offset="0" programID="0" type="static">
      <phase duration="19.432310795" state="G"/>
      <phase duration="3.1441912495" state="y"/>
   </tlLogic>
   <tlLogic id="1366801190" offset="0" programID="0" type="static"/>
   <tlLogic id="1366801194" offset="0" programID="0" type="static"/>
   <tlLogic id="1366801200" offset="0" programID="0" type="static">
      <phase duration="17.651602088" state="Gr"/>
      <phase duration="2.83729393744" state="yr"/>
      <phase duration="17.651602088" state="rG"/>
      <phase duration="2.83729393744" state="ry"/>
   </tlLogic>
   <tlLogic id="1366801204" offset="0" programID="0" type="static">
      <phase duration="12.4891298392" state="G"/>
      <phase duration="9.74274883572" state="y"/>
   </tlLogic>
   <tlLogic id="1366801217" offset="0" programID="0" type="static">
      <phase duration="7.28048264151" state="G"/>
      <phase duration="7.41888918744" state="y"/>
   </tlLogic>
   <tlLogic id="1366801221" offset="0" programID="0" type="static">
      <phase duration="19.6931569581" state="Gr"/>
      <phase duration="7.4634513166" state="yr"/>
      <phase duration="19.6931569581" state="rG"/>
      <phase duration="7.4634513166" state="ry"/>
   </tlLogic>
   <tlLogic id="1366801267" offset="0" programID="0" type="static">
      <phase duration="22.1991391283" state="Grr"/>
      <phase duration="4.5495507074" state="yrr"/>
      <phase duration="22.1991391283" state="rGr"/>
      <phase duration="4.5495507074" state="ryr"/>
      <phase duration="22.1991391283" state="rrG"/>
      <phase duration="4.5495507074" state="rry"/>
   </tlLogic>
   <tlLogic id="1492679687" offset="0" programID="0" type="static">
      <phase duration="27.4157076609" state="Gr"/>
      <phase duration="7.4849204372" state="yr"/>
      <phase duration="27.4157076609" state="rG"/>
      <phase duration="7.4849204372" state="ry"/>
   </tlLogic>
   <tlLogic id="1492679696" offset="0" programID="0" type="static">
      <phase duration="21.5780492532" state="Gr"/>
      <phase duration="8.04328540201" state="yr"/>
      <phase duration="21.5780492532" state="rG"/>
      <phase duration="8.04328540201" state="ry"/>
   </tlLogic>
   <tlLogic id="1492679714" offset="0" programID="0" type="static">
      <phase duration="10.3618278513" state="Gr"/>
      <phase duration="2.09990075979" state="yr"/>
      <phase duration="10.3618278513" state="rG"/>
      <phase duration="2.09990075979" state="ry"/>
   </tlLogic>
   <tlLogic id="1492679729" offset="0" programID="0" type="static">
      <phase duration="11.46700398" state="G"/>
      <phase duration="2.56867817061" state="y"/>
   </tlLogic>
   <tlLogic id="1492679731" offset="0" programID="0" type="static">
      <phase duration="10.4466236641" state="Gr"/>
      <phase duration="6.00928853622" state="yr"/>
      <phase duration="10.4466236641" state="rG"/>
      <phase duration="6.00928853622" state="ry"/>
   </tlLogic>
   <tlLogic id="1492679738" offset="0" programID="0" type="static">
      <phase duration="21.3362456308" state="G"/>
      <phase duration="2.44903425068" state="y"/>
   </tlLogic>
   <tlLogic id="1492679741" offset="0" programID="0" type="static">
      <phase duration="22.393414755" state="G"/>
      <phase duration="4.67588727644" state="y"/>
   </tlLogic>
   <tlLogic id="1492679749" offset="0" programID="0" type="static">
      <phase duration="16.7940270691" state="GGrrr"/>