<?xml version="1.0" ?>
<tlLogics>
   <tlLogic id="1000099475" offset="0" programID="0" type="static">
      <phase duration="3.29143913851" state="GG"/>
      <phase duration="4.02769674984" state="yy"/>
   </tlLogic>
   <tlLogic id="1000099490" offset="0" programID="0" type="static">
      <phase duration="25.1901178309" state="Gr"/>
      <phase duration="1.73465384306" state="yr"/>
      <phase duration="25.1901178309" state="rG"/>
      <phase duration="1.73465384306" state="ry"/>
   </tlLogic>
   <tlLogic id="1000099503" offset="0" programID="0" type="static">
      <phase duration="24.2310944053" state="GGGrrrrrrrr"/>
      <phase duration="9.89456223225" state="yyyrrrrrrrr"/>
      <phase duration="24.2310944053" state="rrrGGGrrrrr"/>
      <phase duration="9.89456223225" state="rrryyyrrrrr"/>
      <phase duration="24.2310944053" state="rrrrrrGGGGG"/>
      <phase duration="9.89456223225" state="rrrrrryyyyy"/>
   </tlLogic>
   <tlLogic id="1000099576" offset="0" programID="0" type="static">
      <phase duration="12.4205252509" state="Grrrr"/>
      <phase duration="6.70030624284" state="yrrrr"/>
      <phase duration="12.4205252509" state="rGGrr"/>
      <phase duration="6.70030624284" state="ryyrr"/>
      <phase duration="12.4205252509" state="rrrGG"/>
      <phase duration="6.70030624284" state="rrryy"/>
   </tlLogic>
   <tlLogic id="1000099591" offset="0" programID="0" type="static">
      <phase duration="13.9716780496" state="GGrr"/>
      <phase duration="4.52093864665" state="yyrr"/>
      <phase duration="13.9716780496" state="rrGG"/>
      <phase duration="4.52093864665" state="rryy"/>
   </tlLogic>
   <tlLogic id="1000099607" offset="0" programID="0" type="static">
      <phase duration="23.8140722702" state="GGr"/>
      <phase duration="8.28262036242" state="yyr"/>
      <phase duration="23.8140722702" state="rrG"/>
      <phase duration="8.28262036242" state="rry"/>
   </tlLogic>
   <tlLogic id="1000099651" offset="0" programID="0" type="static">
      <phase duration="21.8555587793" state="GGrrrr"/>
      <phase duration="7.65123636284" state="yyrrrr"/>
      <phase duration="21.8555587793" state="rrGGrr"/>
      <phase duration="7.65123636284" state="rryyrr"/>
      <phase duration="21.8555587793" state="rrrrGG"/>
      <phase duration="7.65123636284" state="rrrryy"/>
   </tlLogic>
   <tlLogic id="1000099724" offset="0" programID="0" type="static">
      <phase duration="23.549730145" state="Grrr"/>
      <phase duration="7.5665448002" state="yrrr"/>
      <phase duration="23.549730145" state="rGGG"/>
      <phase duration="7.5665448002" state="ryyy"/>
   </tlLogic>
   <tlLogic id="1000099788" offset="0" programID="0" type="static">
      <phase duration="36.2340802944" state="GGrr"/>
      <phase duration="4.26854787393" state="yyrr"/>
      <phase duration="36.2340802944" state="rrGG"/>
      <phase duration="4.26854787393" state="rryy"/>
   </tlLogic>
   <tlLogic id="1012321573" offset="0" programID="0" type="static">
      <phase duration="16.3946863971" state="Gr"/>
      <phase duration="5.05983530841" state="yr"/>
      <phase duration="16.3946863971" state="rG"/>
      <phase duration="5.05983530841" state="ry"/>
   </tlLogic>
   <tlLogic id="1028832186" offset="0" programID="0" type="static"/>
   <tlLogic id="1037290808" offset="0" programID="0" type="static">
      <phase duration="17.4791206104" state="GGGrrrrrr"/>
      <phase duration="2.2608766254" state="yyyrrrrrr"/>
      <phase duration="17.4791206104" state="rrrGGGrrr"/>
      <phase duration="2.2608766254" state="rrryyyrrr"/>
      <phase duration="17.4791206104" state="rrrrrrGGG"/>
      <phase duration="2.2608766254" state="rrrrrryyy"/>
   </tlLogic>
   <tlLogic id="1037290822" offset="0" programID="0" type="static">
      <phase duration="36.5335494095" state="GGrr"/>
      <phase duration="8.3494864209" state="yyrr"/>
      <phase duration="36.5335494095" state="rrGG"/>
      <phase duration="8.3494864209" state="rryy"/>
   </tlLogic>
   <tlLogic id="1037290915" offset="0" programID="0" type="static">
      <phase duration="30.3001592836" state="GGrrr"/>
      <phase duration="6.1646653611" state="yyrrr"/>
      <phase duration="30.3001592836" state="rrGGG"/>
      <phase duration="6.1646653611" state="rryyy"/>
   </tlLogic>
   <tlLogic id="1045044715" offset="0" programID="0" type="static">
      <phase duration="17.0632958038" state="Gr"/>
      <phase duration="2.52263156377" state="yr"/>
      <phase duration="17.0632958038" state="rG"/>
      <phase duration="2.52263156377" state="ry"/>
   </tlLogic>
   <tlLogic id="1045044750" offset="0" programID="0" type="static">
      <phase duration="25.0272705392" state="Gr"/>
      <phase duration="7.93766151146" state="yr"/>
      <phase duration="25.0272705392" state="rG"/>
      <phase duration="7.93766151146" state="ry"/>
   </tlLogic>
   <tlLogic id="1045044796" offset="0" programID="0" type="static">
      <phase duration="26.2946123599" state="Gr"/>
      <phase duration="3.54610100304" state="yr"/>
      <phase duration="26.2946123599" state="rG"/>
      <phase duration="3.54610100304" state="ry"/>
   </tlLogic>
   <tlLogic id="1045044863" offset="0" programID="0" type="static">
      <phase duration="38.278337093" state="G"/>
      <phase duration="8.50353114646" state="y"/>
   </tlLogic>
   <tlLogic id="1062771951" offset="0" programID="0" type="static">
      <phase duration="8.56758180153" state="GGrr"/>
      <phase duration="5.89430725645" state="yyrr"/>
      <phase duration="8.56758180153" state="rrGG"/>
      <phase duration="5.89430725645" state="rryy"/>
   </tlLogic>
   <tlLogic id="1062771990" offset="0" programID="0" type="static">
      <phase duration="16.9760582279" state="G"/>
      <phase duration="9.96187856951" state="y"/>
   </tlLogic>
   <tlLogic id="1109589987" offset="0" programID="0" type="static">
      <phase duration="37.0047991106" state="GGrr"/>
      <phase duration="1.5657792169" state="yyrr"/>
      <phase duration="37.0047991106" state="rrGG"/>
      <phase duration="1.5657792169" state="rryy"/>
   </tlLogic>
   <tlLogic id="1150667540" offset="0" programID="0" type="static">
      <phase duration="25.5218286127" state="G"/>
      <phase duration="2.6160648219" state="y"/>
   </tlLogic>
   <tlLogic id="1150667546" offset="0" programID="0" type="static">
      <phase duration="26.1592885317" state="G"/>
      <phase duration="9.65108821868" state="y"/>
   </tlLogic>
   <tlLogic id="1150667552" offset="0" programID="0" type="static">
      <phase duration="15.3949384901" state="Gr"/>
      <phase duration="5.67951116723" state="yr"/>
      <phase duration="15.3949384901" state="rG"/>
      <phase duration="5.67951116723" state="ry"/>
   </tlLogic>
   <tlLogic id="1150667555" offset="0" programID="0" type="static">
      <phase duration="26.9535541921" state="Gr"/>
      <phase duration="7.98991670928" state="yr"/>
      <phase duration="26.9535541921" state="rG"/>
      <phase duration="7.98991670928" state="ry"/>
   </tlLogic>
   <tlLogic id="1150667558" offset="0" programID="0" type="static">
      <phase duration="15.046038714" state="Gr"/>
      <phase duration="9.79645400304" state="yr"/>
      <phase duration="15.046038714" state="rG"/>
      <phase duration="9.79645400304" state="ry"/>
   </tlLogic>
   <tlLogic id="1150667560" offset="0" programID="0" type="static">
      <phase duration="3.96594668985" state="G"/>
      <phase duration="3.26327449542" state="y"/>
   </tlLogic>
   <tlLogic id="1150667571" offset="0" programID="0" type="static">
      <phase duration="22.9168308992" state="G"/>
      <phase duration="2.56310808109" state="y"/>
   </tlLogic>
   <tlLogic id="1150667608" offset="0" programID="0" type="static">
      <phase duration="33.0322153954" state="Gr"/>
      <phase duration="4.20578099021" state="yr"/>
      <phase duration="33.0322153954" state="rG"/>
      <phase duration="4.20578099021" state="ry"/>
   </tlLogic>
   <tlLogic id="1150667618" offset="0" programID="0" type="static">
      <phase duration="38.0128856038" state="G"/>
      <phase duration="3.92485170312" state="y"/>
   </tlLogic>
   <tlLogic id="1156723834" offset="0" programID="0" type="static">
      <phase duration="18.9390995433" state="G"/>
      <phase duration="5.61330914492" state="y"/>
   </tlLogic>
   <tlLogic id="1157698150" offset="0" programID="0" type="static">
      <phase duration="14.8560621645" state="G"/>
      <phase duration="4.74288235842" state="y"/>
   </tlLogic>
   <tlLogic id="1201745399" offset="0" programID="0" type="static"/>
   <tlLogic id="1201745409" offset="0" programID="0" type="static">
      <phase duration="29.6920594714" state="G"/>
      <phase duration="3.38012974787" state="y"/>
   </tlLogic>
   <tlLogic id="1211136595" offset="0" programID="0" type="static">
      <phase duration="27.578950859" state="G"/>
      <phase duration="7.52260034895" state="y"/>
   </tlLogic>
   <tlLogic id="1211136870" offset="0" programID="0" type="static">
      <phase duration="19.2564892119" state="GGrr"/>
      <phase duration="2.72897026689" state="yyrr"/>
      <phase duration="19.2564892119" state="rrGG"/>
      <phase duration="2.72897026689" state="rryy"/>
   </tlLogic>
   <tlLogic id="1220020592" offset="0" programID="0" type="static">
      <phase duration="14.1022332898" state="Gr"/>
      <phase duration="6.50600132957" state="yr"/>
      <phase duration="14.1022332898" state="rG"/>
      <phase duration="6.50600132957" state="ry"/>
   </tlLogic>
   <tlLogic id="1220020656" offset="0" programID="0" type="static">
      <phase duration="34.2843252331" state="GGrr"/>
      <phase duration="2.67983709948" state="yyrr"/>
      <phase duration="34.2843252331" state="rrGG"/>
      <phase duration="2.67983709948" state="rryy"/>
   </tlLogic>
   <tlLogic id="1220020679" offset="0" programID="0" type="static">
      <phase duration="33.2734474059" state="GGrr"/>
      <phase duration="3.71798908321" state="yyrr"/>
      <phase duration="33.2734474059" state="rrGG"/>
      <phase duration="3.71798908321" state="rryy"/>
   </tlLogic>
   <tlLogic id="1229522462" offset="0" programID="0" type="static">
      <phase duration="4.42976407191" state="G"/>
      <phase duration="4.91251708617" state="y"/>
   </tlLogic>
   <tlLogic id="1229522552" offset="0" programID="0" type="static">
      <phase duration="16.539002418" state="G"/>
      <phase duration="6.69464501252" state="y"/>
   </tlLogic>
   <tlLogic id="1252265070" offset="0" programID="0" type="static"/>
   <tlLogic id="1252285082" offset="0" programID="0" type="static">
      <phase duration="27.470577393" state="G"/>
      <phase duration="8.27159806121" state="y"/>
   </tlLogic>
   <tlLogic id="1252285085" offset="0" programID="0" type="static">
      <phase duration="18.9868833059" state="Gr"/>
      <phase duration="3.78307031116" state="yr"/>
      <phase duration="18.9868833059" state="rG"/>
      <phase duration="3.78307031116" state="ry"/>
   </tlLogic>
   <tlLogic id="1252285107" offset="0" programID="0" type="static">
      <phase duration="30.4020184969" state="G"/>
      <phase duration="3.13523033349" state="y"/>
   </tlLogic>
   <tlLogic id="1252285138" offset="0" programID="0" type="static">
      <phase duration="25.0477789358" state="G"/>
      <phase duration="6.69314340145" state="y"/>
   </tlLogic>
   <tlLogic id="1264255381" offset="0" programID="0" type="static">
      <phase duration="13.0424581756" state="GGGrrrrrr"/>
      <phase duration="8.68917014231" state="yyyrrrrrr"/>
      <phase duration="13.0424581756" state="rrrGGGrrr"/>
      <phase duration="8.68917014231" state="rrryyyrrr"/>
      <phase duration="13.0424581756" state="rrrrrrGGG"/>
      <phase duration="8.68917014231" state="rrrrrryyy"/>
   </tlLogic>
   <tlLogic id="1271504738" offset="0" programID="0" type="static">
      <phase duration="23.3221307563" state="Gr"/>
      <phase duration="6.56203767728" state="yr"/>
      <phase duration="23.3221307563" state="rG"/>
      <phase duration="6.56203767728" state="ry"/>
   </tlLogic>
   <tlLogic id="1271504743" offset="0" programID="0" type="static">
      <phase duration="14.4451219076" state="G"/>
      <phase duration="3.16681397609" state="y"/>
   </tlLogic>
   <tlLogic id="1271504755" offset="0" programID="0" type="static">
      <phase duration="25.5733578649" state="GGrrr"/>
      <phase duration="7.4148370379" state="yyrrr"/>
      <phase duration="25.5733578649" state="rrGrr"/>
      <phase duration="7.4148370379" state="rryrr"/>
      <phase duration="25.5733578649" state="rrrGG"/>
      <phase duration="7.4148370379" state="rrryy"/>
   </tlLogic>
   <tlLogic id="1271504756" offset="0" programID="0" type="static">
      <phase duration="20.1244530833" state="Gr"/>
      <phase duration="7.38732795629" state="yr"/>
      <phase duration="20.1244530833" state="rG"/>
      <phase duration="7.38732795629" state="ry"/>
   </tlLogic>
   <tlLogic id="1271504757" offset="0" programID="0" type="static">
      <phase duration="4.39995326657" state="GGrrr"/>
      <phase duration="3.60176117758" state="yyrrr"/>
      <phase duration="4.39995326657" state="rrGrr"/>
      <phase duration="3.60176117758" state="rryrr"/>
      <phase duration="4.39995326657" state="rrrGG"/>
      <phase duration="3.60176117758" state="rrryy"/>
   </tlLogic>
   <tlLogic id="1271504758" offset="0" programID="0" type="static">
      <phase duration="18.4475676782" state="G"/>
      <phase duration="9.70524117551" state="y"/>
   </tlLogic>
   <tlLogic id="1271504767" offset="0" programID="0" type="static">
      <phase duration="33.1644515066" state="G"/>
      <phase duration="9.74866294226" state="y"/>
   </tlLogic>
   <tlLogic id="1271504774" offset="0" programID="0" type="static">
      <phase duration="7.01917127761" state="G"/>
      <phase duration="5.90991484224" state="y"/>
   </tlLogic>
   <tlLogic id="1271504781" offset="0" programID="0" type="static">
      <phase duration="24.470898239" state="GGrrr"/>
      <phase duration="2.36359275797" state="yyrrr"/>
      <phase duration="24.470898239" state="rrGrr"/>
      <phase duration="2.36359275797" state="rryrr"/>
      <phase duration="24.470898239" state="rrrGG"/>
      <phase duration="2.36359275797" state="rrryy"/>
   </tlLogic>
   <tlLogic id="1271504783" offset="0" programID="0" type="static">
      <phase duration="8.67730596132" state="Gr"/>
      <phase duration="5.02162376004" state="yr"/>
      <phase duration="8.67730596132" state="rG"/>
      <phase duration="5.02162376004" state="ry"/>
   </tlLogic>
   <tlLogic id="1271504788" offset="0" programID="0" type="static">
      <phase duration="23.6412495725" state="GGrrr"/>
      <phase duration="8.05744940552" state="yyrrr"/>
      <phase duration="23.6412495725" state="rrGGG"/>
      <phase duration="8.05744940552" state="rryyy"/>
   </tlLogic>
   <tlLogic id="1271504797" offset="0" programID="0" type="static">
      <phase duration="21.1939574681" state="Gr"/>
      <phase duration="7.72920306575" state="yr"/>
      <phase duration="21.1939574681" state="rG"/>
      <phase duration="7.72920306575" state="ry"/>
   </tlLogic>
   <tlLogic id="1271504801" offset="0" programID="0" type="static">
      <phase duration="5.93882815754" state="G"/>
      <phase duration="8.13625914677" state="y"/>
   </tlLogic>
   <tlLogic id="1271504803" offset="0" programID="0" type="static">
      <phase duration="20.8990076292" state="G"/>
      <phase duration="3.36505525317" state="y"/>
   </tlLogic>
   <tlLogic id="1271504804" offset="0" programID="0" type="static">
      <phase duration="23.6649291297" state="Gr"/>
      <phase duration="5.08646418723" state="yr"/>
      <phase duration="23.6649291297" state="rG"/>
      <phase duration="5.08646418723" state="ry"/>
   </tlLogic>
   <tlLogic id="1271504812" offset="0" programID="0" type="static">
      <phase duration="19.8003700897" state="G"/>
      <phase duration="2.1623404976" state="y"/>
   </tlLogic>
   <tlLogic id="1271504813" offset="0" programID="0" type="static">
      <phase duration="9.64432947311" state="G"/>
      <phase duration="2.95648950477" state="y"/>
   </tlLogic>
   <tlLogic id="1271504815" offset="0" programID="0" type="static">
      <phase duration="8.37754879104" state="Gr"/>
      <phase duration="4.13652732332" state="yr"/>
      <phase duration="8.37754879104" state="rG"/>
      <phase duration="4.13652732332" state="ry"/>
   </tlLogic>
   <tlLogic id="1271504822" offset="0" programID="0" type="static">
      <phase duration="27.8710223494" state="G"/>
      <phase duration="4.00829967393" state="y"/>
   </tlLogic>
   <tlLogic id="1271504829" offset="0" programID="0" type="static">
      <phase duration="13.3167496459" state="Gr"/>
      <phase duration="9.67288335172" state="yr"/>
      <phase duration="13.3167496459" state="rG"/>
      <phase duration="9.67288335172" state="ry"/>
   </tlLogic>
   <tlLogic id="1271504830" offset="0" programID="0" type="static">
      <phase duration="18.574161885" state="GGrrr"/>
      <phase duration="4.05739998504" state="yyrrr"/>
      <phase duration="18.574161885" state="rrGrr"/>
      <phase duration="4.05739998504" state="rryrr"/>
      <phase duration="18.574161885" state="rrrGG"/>
      <phase duration="4.05739998504" state="rrryy"/>
   </tlLogic>
   <tlLogic id="1271504836" offset="0" programID="0" type="static">
      <phase duration="29.7300327923" state="G"/>
      <phase duration="4.68968994809" state="y"/>
   </tlLogic>
   <tlLogic id="1271504838" offset="0" programID="0" type="static">
      <phase duration="11.0476126413" state="GGrrr"/>
      <phase duration="4.02541225598" state="yyrrr"/>
      <phase duration="11.0476126413" state="rrGGr"/>
      <phase duration="4.02541225598" state="rryyr"/>
      <phase duration="11.0476126413" state="rrrrG"/>
      <phase duration="4.02541225598" state="rrrry"/>
   </tlLogic>
   <tlLogic id="1271504841" offset="0" programID="0" type="static">
      <phase duration="23.7791257847" state="G"/>
      <phase duration="9.95709027402" state="y"/>
   </tlLogic>
   <tlLogic id="1271504842" offset="0" programID="0" type="static">
      <phase duration="32.0535226464" state="G"/>
      <phase duration="6.98078005998" state="y"/>
   </tlLogic>
   <tlLogic id="1271504843" offset="0" programID="0" type="static">
      <phase duration="12.3038309638" state="Gr"/>
      <phase duration="4.57599898097" state="yr"/>
      <phase duration="12.3038309638" state="rG"/>
      <phase duration="4.57599898097" state="ry"/>
   </tlLogic>
   <tlLogic id="1271504844" offset="0" programID="0" type="static">
      <phase duration="21.9136101624" state="G"/>
      <phase duration="9.48260032841" state="y"/>
   </tlLogic>
   <tlLogic id="1271504849" offset="0" programID="0" type="static">
      <phase duration="4.09151510989" state="GGrrr"/>
      <phase duration="7.76749061306" state="yyrrr"/>
      <phase duration="4.09151510989" state="rrGrr"/>
      <phase duration="7.76749061306" state="rryrr"/>
      <phase duration="4.09151510989" state="rrrGG"/>
      <phase duration="7.76749061306" state="rrryy"/>
   </tlLogic>
   <tlLogic id="1271504850" offset="0" programID="0" type="static">
      <phase duration="13.3494785886" state="Gr"/>
      <phase duration="9.05133259907" state="yr"/>
      <phase duration="13.3494785886" state="rG"/>
      <phase duration="9.05133259907" state="ry"/>
   </tlLogic>
   <tlLogic id="1271504851" offset="0" programID="0" type="static">
      <phase duration="26.2543147282" state="G"/>
      <phase duration="6.54391831695" state="y"/>
   </tlLogic>
   <tlLogic id="1271504861" offset="0" programID="0" type="static">
      <phase duration="7.44746032408" state="G"/>
      <phase duration="9.18337228678" state="y"/>
   </tlLogic>
   <tlLogic id="1271504867" offset="0" programID="0" type="static">
      <phase duration="9.54546333098" state="G"/>
      <phase duration="3.02064815977" state="y"/>
   </tlLogic>
   <tlLogic id="1271504870" offset="0" programID="0" type="static">
      <phase duration="26.1588710005" state="G"/>
      <phase duration="3.80669118643" state="y"/>
   </tlLogic>
   <tlLogic id="1271504871" offset="0" programID="0" type="static">
      <phase duration="22.1699022665" state="GGrr"/>
      <phase duration="7.51057430627" state="yyrr"/>
      <phase duration="22.1699022665" state="rrGG"/>
      <phase duration="7.51057430627" state="rryy"/>
   </tlLogic>
   <tlLogic id="1271504873" offset="0" programID="0" type="static">
      <phase duration="18.9590748535" state="GGrrr"/>
      <phase duration="6.42854237363" state="yyrrr"/>
      <phase duration="18.9590748535" state="rrGrr"/>
      <phase duration="6.42854237363" state="rryrr"/>
      <phase duration="18.9590748535" state="rrrGG"/>
      <phase duration="6.42854237363" state="rrryy"/>
   </tlLogic>
   <tlLogic id="1271504874" offset="0" programID="0" type="static">
      <phase duration="37.5195043757" state="G"/>
      <phase duration="4.93172435917" state="y"/>
   </tlLogic>
   <tlLogic id="1271504875" offset="0" programID="0" type="static">
      <phase duration="28.2087051658" state="G"/>
      <phase duration="3.57975015274" state="y"/>
   </tlLogic>
   <tlLogic id="1271504878" offset="0" programID="0" type="static">
      <phase duration="16.3427806649" state="G"/>
      <phase duration="4.86785782335" state="y"/>
   </tlLogic>
   <tlLogic id="1271504883" offset="0" programID="0" type="static">
      <phase duration="16.3451001168" state="GGrrr"/>
      <phase duration="3.3585515111" state="yyrrr"/>
      <phase duration="16.3451001168" state="rrGrr"/>
      <phase duration="3.3585515111" state="rryrr"/>
      <phase duration="16.3451001168" state="rrrGG"/>
      <phase duration="3.3585515111" state="rrryy"/>
   </tlLogic>
   <tlLogic id="1271504887" offset="0" programID="0" type="static">
      <phase duration="13.1173914534" state="G"/>
      <phase duration="6.67366641261" state="y"/>
   </tlLogic>
   <tlLogic id="1271504895" offset="0" programID="0" type="static">
      <phase duration="17.5724097041" state="GGrrr"/>
      <phase duration="3.03830533221" state="yyrrr"/>
      <phase duration="17.5724097041" state="rrGrr"/>
      <phase duration="3.03830533221" state="rryrr"/>
      <phase duration="17.5724097041" state="rrrGG"/>
      <phase duration="3.03830533221" state="rrryy"/>
   </tlLogic>
   <tlLogic id="1271504898" offset="0" programID="0" type="static">
      <phase duration="24.620189185" state="Gr"/>
      <phase duration="4.74253523953" state="yr"/>
      <phase duration="24.620189185" state="rG"/>
      <phase duration="4.74253523953" state="ry"/>
   </tlLogic>
   <tlLogic id="1271504899" offset="0" programID="0" type="static">
      <phase duration="12.6163654278" state="G"/>
      <phase duration="4.2305363915" state="y"/>
   </tlLogic>
   <tlLogic id="1271504901" offset="0" programID="0" type="static">
      <phase duration="39.7871566175" state="GGrrr"/>
      <phase duration="4.50267417971" state="yyrrr"/>
      <phase duration="39.7871566175" state="rrGrr"/>
      <phase duration="4.50267417971" state="rryrr"/>
      <phase duration="39.7871566175" state="rrrGG"/>
      <phase duration="4.50267417971" state="rrryy"/>
   </tlLogic>
   <tlLogic id="1271504902" offset="0" programID="0" type="static">
      <phase duration="27.1656820026" state="Gr"/>
      <phase duration="7.63631776997" state="yr"/>
      <phase duration="27.1656820026" state="rG"/>
      <phase duration="7.63631776997" state="ry"/>
   </tlLogic>
   <tlLogic id="1271504905" offset="0" programID="0" type="static">
      <phase duration="34.6025810064" state="G"/>
      <phase duration="9.96453345657" state="y"/>
   </tlLogic>
   <tlLogic id="1271504910" offset="0" programID="0" type="static">
      <phase duration="16.12392347" state="Gr"/>
      <phase duration="9.90011679872" state="yr"/>
      <phase duration="16.12392347" state="rG"/>
      <phase duration="9.90011679872" state="ry"/>
   </tlLogic>
   <tlLogic id="1299369677" offset="0" programID="0" type="static">
      <phase duration="9.76486857562" state="G"/>
      <phase duration="5.55831312602" state="y"/>
   </tlLogic>
   <tlLogic id="1299369689" offset="0" programID="0" type="static">
      <phase duration="30.7425020989" state="GGrrr"/>
      <phase duration="8.36763523505" state="yyrrr"/>
      <phase duration="30.7425020989" state="rrGrr"/>
      <phase duration="8.36763523505" state="rryrr"/>
      <phase duration="30.7425020989" state="rrrGG"/>
      <phase duration="8.36763523505" state="rrryy"/>
   </tlLogic>
   <tlLogic id="1299369699" offset="0" programID="0" type="static">
      <phase duration="16.1099379643" state="G"/>
      <phase duration="6.24410310799" state="y"/>
   </tlLogic>
   <tlLogic id="1312440659" offset="0" programID="0" type="static">
      <phase duration="21.1939250929" state="GGrrr"/>
      <phase duration="9.81628282499" state="yyrrr"/>
      <phase duration="21.1939250929" state="rrGrr"/>
      <phase duration="9.81628282499" state="rryrr"/>
      <phase duration="21.1939250929" state="rrrGG"/>
      <phase duration="9.81628282499" state="rrryy"/>
   </tlLogic>
   <tlLogic id="1312440715" offset="0" programID="0" type="static">
      <phase duration="15.7409689064" state="Gr"/>
      <phase duration="4.4628275632" state="yr"/>
      <phase duration="15.7409689064" state="rG"/>
      <phase duration="4.4628275632" state="ry"/>
   </tlLogic>
   <tlLogic id="1353566371" offset="0" programID="0" type="static">
      <phase duration="21.8806909011" state="G"/>
      <phase duration="1.19083605682" state="y"/>
   </tlLogic>
   <tlLogic id="1360932319" offset="0" programID="0" type="static"/>
   <tlLogic id="1366801185" offset="0" programID="0" type="static">
      <phase duration="32.7750832679" state="G"/>
      <phase duration="5.66057824308" state="y"/>
   </tlLogic>
   <tlLogic id="1366801190" offset="0" programID="0" type="static"/>
   <tlLogic id="1366801194" offset="0" programID="0" type="static"/>
   <tlLogic id="1366801200" offset="0" programID="0" type="static">
      <phase duration="11.2351124376" state="Gr"/>
      <phase duration="3.26515533899" state="yr"/>
      <phase duration="11.2351124376" state="rG"/>
      <phase duration="3.26515533899" state="ry"/>
   </tlLogic>
   <tlLogic id="1366801204" offset="0" programID="0" type="static">
      <phase duration="33.8895192165" state="G"/>
      <phase duration="7.81715260083" state="y"/>
   </tlLogic>
   <tlLogic id="1366801217" offset="0" programID="0" type="static">
      <phase duration="5.42056364736" state="G"/>
      <phase duration="9.72852113029" state="y"/>
   </tlLogic>
   <tlLogic id="1366801267" offset="0" programID="0" type="static">
      <phase duration="21.9728237538" state="Grr"/>
      <phase duration="6.75066307679" state="yrr"/>
      <phase duration="21.9728237538" state="rGr"/>
      <phase duration="6.75066307679" state="ryr"/>
      <phase duration="21.9728237538" state="rrG"/>
      <phase duration="6.75066307679" state="rry"/>
   </tlLogic>
   <tlLogic id="1492679675" offset="0" programID="0" type="static">
      <phase duration="29.9001557823" state="Gr"/>
      <phase duration="5.92879766555" state="yr"/>
      <phase duration="29.9001557823" state="rG"/>
      <phase duration="5.92879766555" state="ry"/>
   </tlLogic>
   <tlLogic id="1492679678" offset="0" programID="0" type="static">
      <phase duration="35.6201956286" state="Gr"/>
      <phase duration="9.5452602288" state="yr"/>
      <phase duration="35.6201956286" state="rG"/>
      <phase duration="9.5452602288" state="ry"/>
   </tlLogic>
   <tlLogic id="1492679714" offset="0" programID="0" type="static">
      <phase duration="21.8430231763" state="Gr"/>
      <phase duration="9.50008115135" state="yr"/>
      <phase duration="21.8430231763" state="rG"/>
      <phase duration="9.50008115135" state="ry"/>
   </tlLogic>
   <tlLogic id="1492679726" offset="0" programID="0" type="static">
      <phase duration="5.88297602115" state="G"/>
      <phase duration="9.95267174544" state="y"/>
   </tlLogic>
   <tlLogic id="1492679731" offset="0" programID="0" type="static">
      <phase duration="2.37564925781" state="Gr"/>
      <phase duration="5.96720840052" state="yr"/>
      <phase duration="2.37564925781" state="rG"/>
      <phase duration="5.96720840052" state="ry"/>
   </tlLogic>
   <tlLogic id="1492679733" offset="0" programID="0" type="static">
      <phase duration="24.2196123113" state="Gr"/>
      <phase duration="5.46508908677" state="yr"/>
      <phase duration="24.2196123113" state="rG"/>
      <phase duration="5.46508908677" state="ry"/>
   </tlLogic>
   <tlLogic id="1492679739" offset="0" programID="0" type="static">
      <phase duration="27.7964921749" state="G"/>
      <phase duration="7.69515843325" state="y"/>
   </tlLogic>
   <tlLogic id="1492679747" offset="0" programID="0" type="static">
      <phase duration="22.9954094364" state="Gr"/>
      <phase duration="7.46074210787" state="yr"/>
      <phase duration="22.9954094364" state="rG"/>
      <phase duration="7.46074210787" state="ry"/>
   </tlLogic>
   <tlLogic id="1492679749" offset="0" programID="0" type="static">
      <phase duration="24.9100816377" state="GGrrr"/>
      <phase duration="3.34483052675" state="yyrrr"/>
      <phase duration="24.9100816377" state="rrGGr"/>
      <phase duration="3.34483052675" state="rryyr"/>
      <phase duration="24.9100816377" state="rrrrG"/>
      <phase duration="3.34483052675" state="rrrry"/>
   </tlLogic>
   <tlLogic id="1492679753" offset="0" programID="0" type="static">
      <phase duration="23.2068236432" state="G"/>
      <phase duration="5.89120767205" state="y"/>
   </tlLogic>
   <tlLogic id="1492679755" offset="0" programID="0" type="static">
      <phase duration="24.9253336182" state="G"/>
      <phase duration="9.04259377668" state="y"/>
   </tlLogic>