<?xml version="1.0" ?>
<tlLogics>
   <tlLogic id="1000099503" offset="0" programID="0" type="static">
      <phase duration="8.43409196766" state="GGGrrrrrrrr"/>
      <phase duration="2.20809927009" state="yyyrrrrrrrr"/>
      <phase duration="8.43409196766" state="rrrGGGrrrrr"/>
      <phase duration="2.20809927009" state="rrryyyrrrrr"/>
      <phase duration="8.43409196766" state="rrrrrrGGGGG"/>
      <phase duration="2.20809927009" state="rrrrrryyyyy"/>
   </tlLogic>
   <tlLogic id="1000099591" offset="0" programID="0" type="static">
      <phase duration="30.8270212887" state="GGrr"/>
      <phase duration="7.76674348889" state="yyrr"/>
      <phase duration="30.8270212887" state="rrGG"/>
      <phase duration="7.76674348889" state="rryy"/>
   </tlLogic>
   <tlLogic id="1000099607" offset="0" programID="0" type="static">
      <phase duration="19.0233378447" state="GGr"/>
      <phase duration="9.01109447783" state="yyr"/>
      <phase duration="19.0233378447" state="rrG"/>
      <phase duration="9.01109447783" state="rry"/>
   </tlLogic>
   <tlLogic id="1000099650" offset="0" programID="0" type="static">
      <phase duration="22.4400945128" state="G"/>
      <phase duration="6.78610404818" state="y"/>
   </tlLogic>
   <tlLogic id="1000099651" offset="0" programID="0" type="static">
      <phase duration="18.8843483724" state="GGrrrr"/>
      <phase duration="2.82277676494" state="yyrrrr"/>
      <phase duration="18.8843483724" state="rrGGrr"/>
      <phase duration="2.82277676494" state="rryyrr"/>
      <phase duration="18.8843483724" state="rrrrGG"/>
      <phase duration="2.82277676494" state="rrrryy"/>
   </tlLogic>
   <tlLogic id="1000099741" offset="0" programID="0" type="static">
      <phase duration="15.3446717679" state="GGrr"/>
      <phase duration="2.81642008853" state="yyrr"/>
      <phase duration="15.3446717679" state="rrGG"/>
      <phase duration="2.81642008853" state="rryy"/>
   </tlLogic>
   <tlLogic id="1012321573" offset="0" programID="0" type="static">
      <phase duration="13.9890851794" state="Gr"/>
      <phase duration="8.2768911661" state="yr"/>
      <phase duration="13.9890851794" state="rG"/>
      <phase duration="8.2768911661" state="ry"/>
   </tlLogic>
   <tlLogic id="1012321580" offset="0" programID="0" type="static">
      <phase duration="3.39317816124" state="Gr"/>
      <phase duration="2.5517422268" state="yr"/>
      <phase duration="3.39317816124" state="rG"/>
      <phase duration="2.5517422268" state="ry"/>
   </tlLogic>
   <tlLogic id="1028832186" offset="0" programID="0" type="static"/>
   <tlLogic id="1037290822" offset="0" programID="0" type="static">
      <phase duration="7.07208969264" state="GGrr"/>
      <phase duration="6.27822932343" state="yyrr"/>
      <phase duration="7.07208969264" state="rrGG"/>
      <phase duration="6.27822932343" state="rryy"/>
   </tlLogic>
   <tlLogic id="1037290889" offset="0" programID="0" type="static">
      <phase duration="23.1728636306" state="GGrr"/>
      <phase duration="6.88640409707" state="yyrr"/>
      <phase duration="23.1728636306" state="rrGG"/>
      <phase duration="6.88640409707" state="rryy"/>
   </tlLogic>
   <tlLogic id="1040964333" offset="0" programID="0" type="static">
      <phase duration="32.3196987838" state="Gr"/>
      <phase duration="5.24801837371" state="yr"/>
      <phase duration="32.3196987838" state="rG"/>
      <phase duration="5.24801837371" state="ry"/>
   </tlLogic>
   <tlLogic id="1045044715" offset="0" programID="0" type="static">
      <phase duration="11.1886532839" state="Gr"/>
      <phase duration="6.90408538336" state="yr"/>
      <phase duration="11.1886532839" state="rG"/>
      <phase duration="6.90408538336" state="ry"/>
   </tlLogic>
   <tlLogic id="1045044750" offset="0" programID="0" type="static">
      <phase duration="34.5251196991" state="Gr"/>
      <phase duration="8.14713212872" state="yr"/>
      <phase duration="34.5251196991" state="rG"/>
      <phase duration="8.14713212872" state="ry"/>
   </tlLogic>
   <tlLogic id="1045044796" offset="0" programID="0" type="static">
      <phase duration="29.1767926905" state="Gr"/>
      <phase duration="2.28395277082" state="yr"/>
      <phase duration="29.1767926905" state="rG"/>
      <phase duration="2.28395277082" state="ry"/>
   </tlLogic>
   <tlLogic id="1045044863" offset="0" programID="0" type="static">
      <phase duration="19.9246929892" state="G"/>
      <phase duration="2.91352565289" state="y"/>
   </tlLogic>
   <tlLogic id="1062771990" offset="0" programID="0" type="static">
      <phase duration="20.6080748814" state="G"/>
      <phase duration="5.5156894769" state="y"/>
   </tlLogic>
   <tlLogic id="1109589987" offset="0" programID="0" type="static">
      <phase duration="34.9595049163" state="GGrr"/>
      <phase duration="2.67575539492" state="yyrr"/>
      <phase duration="34.9595049163" state="rrGG"/>
      <phase duration="2.67575539492" state="rryy"/>
   </tlLogic>
   <tlLogic id="1125127500" offset="0" programID="0" type="static">
      <phase duration="19.8386443096" state="GG"/>
      <phase duration="8.69131433119" state="yy"/>
   </tlLogic>
   <tlLogic id="1150667539" offset="0" programID="0" type="static">
      <phase duration="15.4826273618" state="G"/>
      <phase duration="4.95451441496" state="y"/>
   </tlLogic>
   <tlLogic id="1150667540" offset="0" programID="0" type="static">
      <phase duration="22.9937874531" state="G"/>
      <phase duration="6.9039502086" state="y"/>
   </tlLogic>
   <tlLogic id="1150667560" offset="0" programID="0" type="static">
      <phase duration="29.3946774657" state="G"/>
      <phase duration="3.6528540003" state="y"/>
   </tlLogic>
   <tlLogic id="1150667571" offset="0" programID="0" type="static">
      <phase duration="7.99662964165" state="G"/>
      <phase duration="1.2321700079" state="y"/>
   </tlLogic>
   <tlLogic id="1150667586" offset="0" programID="0" type="static">
      <phase duration="10.6732376618" state="G"/>
      <phase duration="4.21332219523" state="y"/>
   </tlLogic>
   <tlLogic id="1150667604" offset="0" programID="0" type="static">
      <phase duration="30.1007159373" state="Gr"/>
      <phase duration="5.83346319212" state="yr"/>
      <phase duration="30.1007159373" state="rG"/>
      <phase duration="5.83346319212" state="ry"/>
   </tlLogic>
   <tlLogic id="1150667608" offset="0" programID="0" type="static">
      <phase duration="39.0312021399" state="Gr"/>
      <phase duration="2.72229938909" state="yr"/>
      <phase duration="39.0312021399" state="rG"/>
      <phase duration="2.72229938909" state="ry"/>
   </tlLogic>
   <tlLogic id="1150667618" offset="0" programID="0" type="static">
      <phase duration="34.9411890134" state="G"/>
      <phase duration="5.73670995684" state="y"/>
   </tlLogic>
   <tlLogic id="1156723779" offset="0" programID="0" type="static">
      <phase duration="32.0549693737" state="GGrrr"/>
      <phase duration="5.96925235728" state="yyrrr"/>
      <phase duration="32.0549693737" state="rrGrr"/>
      <phase duration="5.96925235728" state="rryrr"/>
      <phase duration="32.0549693737" state="rrrGG"/>
      <phase duration="5.96925235728" state="rrryy"/>
   </tlLogic>
   <tlLogic id="1156723834" offset="0" programID="0" type="static">
      <phase duration="22.3327490168" state="G"/>
      <phase duration="6.80696345664" state="y"/>
   </tlLogic>
   <tlLogic id="1156723839" offset="0" programID="0" type="static">
      <phase duration="24.401024255" state="Gr"/>
      <phase duration="4.52978130505" state="yr"/>
      <phase duration="24.401024255" state="rG"/>
      <phase duration="4.52978130505" state="ry"/>
   </tlLogic>
   <tlLogic id="1157698150" offset="0" programID="0" type="static">
      <phase duration="19.3746125859" state="G"/>
      <phase duration="7.42309869865" state="y"/>
   </tlLogic>
   <tlLogic id="1200892937" offset="0" programID="0" type="static">
      <phase duration="21.0519563788" state="G"/>
      <phase duration="5.1531314489" state="y"/>
   </tlLogic>
   <tlLogic id="1201745377" offset="0" programID="0" type="static">
      <phase duration="11.8198182895" state="G"/>
      <phase duration="7.86141502275" state="y"/>
   </tlLogic>
   <tlLogic id="1211136497" offset="0" programID="0" type="static">
      <phase duration="22.3207182868" state="GGrr"/>
      <phase duration="6.31089387331" state="yyrr"/>
      <phase duration="22.3207182868" state="rrGG"/>
      <phase duration="6.31089387331" state="rryy"/>
   </tlLogic>
   <tlLogic id="1220020505" offset="0" programID="0" type="static">
      <phase duration="15.6269699211" state="G"/>
      <phase duration="7.05006810369" state="y"/>
   </tlLogic>
   <tlLogic id="1220020588" offset="0" programID="0" type="static">
      <phase duration="21.9920958046" state="GGrr"/>
      <phase duration="3.94380559865" state="yyrr"/>
      <phase duration="21.9920958046" state="rrGG"/>
      <phase duration="3.94380559865" state="rryy"/>
   </tlLogic>
   <tlLogic id="1220020630" offset="0" programID="0" type="static">
      <phase duration="31.4190777396" state="Gr"/>
      <phase duration="2.64884979738" state="yr"/>
      <phase duration="31.4190777396" state="rG"/>
      <phase duration="2.64884979738" state="ry"/>
   </tlLogic>
   <tlLogic id="1220020679" offset="0" programID="0" type="static">
      <phase duration="38.4212301429" state="GGrr"/>
      <phase duration="3.33057996845" state="yyrr"/>
      <phase duration="38.4212301429" state="rrGG"/>
      <phase duration="3.33057996845" state="rryy"/>
   </tlLogic>
   <tlLogic id="1229522462" offset="0" programID="0" type="static">
      <phase duration="8.94628227781" state="G"/>
      <phase duration="4.14681281823" state="y"/>
   </tlLogic>
   <tlLogic id="1229522509" offset="0" programID="0" type="static">
      <phase duration="18.0368268857" state="G"/>
      <phase duration="8.31028615729" state="y"/>
   </tlLogic>
   <tlLogic id="1229522552" offset="0" programID="0" type="static">
      <phase duration="11.8575240933" state="G"/>
      <phase duration="7.94556223265" state="y"/>
   </tlLogic>
   <tlLogic id="1252265070" offset="0" programID="0" type="static"/>
   <tlLogic id="1252285079" offset="0" programID="0" type="static">
      <phase duration="24.4785879308" state="Gr"/>
      <phase duration="2.36263171061" state="yr"/>
      <phase duration="24.4785879308" state="rG"/>
      <phase duration="2.36263171061" state="ry"/>
   </tlLogic>
   <tlLogic id="1252285082" offset="0" programID="0" type="static">
      <phase duration="11.0219250832" state="G"/>
      <phase duration="8.26029287248" state="y"/>
   </tlLogic>
   <tlLogic id="1252285087" offset="0" programID="0" type="static"/>
   <tlLogic id="1252285092" offset="0" programID="0" type="static">
      <phase duration="20.0099315726" state="G"/>
      <phase duration="4.31366894218" state="y"/>
   </tlLogic>
   <tlLogic id="1252285107" offset="0" programID="0" type="static">
      <phase duration="29.3775350271" state="G"/>
      <phase duration="3.91890206669" state="y"/>
   </tlLogic>
   <tlLogic id="1252285137" offset="0" programID="0" type="static">
      <phase duration="10.6735466501" state="Gr"/>
      <phase duration="3.92127889316" state="yr"/>
      <phase duration="10.6735466501" state="rG"/>
      <phase duration="3.92127889316" state="ry"/>
   </tlLogic>
   <tlLogic id="1252285140" offset="0" programID="0" type="static">
      <phase duration="18.2979334015" state="Gr"/>
      <phase duration="7.87308272473" state="yr"/>
      <phase duration="18.2979334015" state="rG"/>
      <phase duration="7.87308272473" state="ry"/>
   </tlLogic>
   <tlLogic id="1258258237" offset="0" programID="0" type="static">
      <phase duration="21.2684935589" state="GGr"/>
      <phase duration="7.34570364672" state="yyr"/>
      <phase duration="21.2684935589" state="rrG"/>
      <phase duration="7.34570364672" state="rry"/>
   </tlLogic>
   <tlLogic id="1271504738" offset="0" programID="0" type="static">
      <phase duration="31.3380075369" state="Gr"/>
      <phase duration="2.18923303611" state="yr"/>
      <phase duration="31.3380075369" state="rG"/>
      <phase duration="2.18923303611" state="ry"/>
   </tlLogic>
   <tlLogic id="1271504747" offset="0" programID="0" type="static">
      <phase duration="13.0225116857" state="Gr"/>
      <phase duration="1.89615923553" state="yr"/>
      <phase duration="13.0225116857" state="rG"/>
      <phase duration="1.89615923553" state="ry"/>
   </tlLogic>
   <tlLogic id="1271504748" offset="0" programID="0" type="static">
      <phase duration="21.532302222" state="Gr"/>
      <phase duration="6.62299330178" state="yr"/>
      <phase duration="21.532302222" state="rG"/>
      <phase duration="6.62299330178" state="ry"/>
   </tlLogic>
   <tlLogic id="1271504755" offset="0" programID="0" type="static">
      <phase duration="20.8290003905" state="GGrrr"/>
      <phase duration="6.88940458558" state="yyrrr"/>
      <phase duration="20.8290003905" state="rrGrr"/>
      <phase duration="6.88940458558" state="rryrr"/>
      <phase duration="20.8290003905" state="rrrGG"/>
      <phase duration="6.88940458558" state="rrryy"/>
   </tlLogic>
   <tlLogic id="1271504757" offset="0" programID="0" type="static">
      <phase duration="14.2227288965" state="GGrrr"/>
      <phase duration="2.05885354784" state="yyrrr"/>
      <phase duration="14.2227288965" state="rrGrr"/>
      <phase duration="2.05885354784" state="rryrr"/>
      <phase duration="14.2227288965" state="rrrGG"/>
      <phase duration="2.05885354784" state="rrryy"/>
   </tlLogic>
   <tlLogic id="1271504758" offset="0" programID="0" type="static">
      <phase duration="23.7210862283" state="G"/>
      <phase duration="7.99470627735" state="y"/>
   </tlLogic>
   <tlLogic id="1271504762" offset="0" programID="0" type="static">
      <phase duration="8.50173123605" state="G"/>
      <phase duration="5.41598469407" state="y"/>
   </tlLogic>
   <tlLogic id="1271504766" offset="0" programID="0" type="static">
      <phase duration="15.1114962123" state="Gr"/>
      <phase duration="4.79985290638" state="yr"/>
      <phase duration="15.1114962123" state="rG"/>
      <phase duration="4.79985290638" state="ry"/>
   </tlLogic>
   <tlLogic id="1271504767" offset="0" programID="0" type="static">
      <phase duration="22.7094822489" state="G"/>
      <phase duration="2.62719484066" state="y"/>
   </tlLogic>
   <tlLogic id="1271504781" offset="0" programID="0" type="static">
      <phase duration="33.9251596972" state="GGrrr"/>
      <phase duration="6.75734971126" state="yyrrr"/>
      <phase duration="33.9251596972" state="rrGrr"/>
      <phase duration="6.75734971126" state="rryrr"/>
      <phase duration="33.9251596972" state="rrrGG"/>
      <phase duration="6.75734971126" state="rrryy"/>
   </tlLogic>
   <tlLogic id="1271504788" offset="0" programID="0" type="static">
      <phase duration="29.5629152358" state="GGrrr"/>
      <phase duration="7.020816998" state="yyrrr"/>
      <phase duration="29.5629152358" state="rrGGG"/>
      <phase duration="7.020816998" state="rryyy"/>
   </tlLogic>
   <tlLogic id="1271504795" offset="0" programID="0" type="static">
      <phase duration="16.7377460926" state="G"/>
      <phase duration="6.9539025917" state="y"/>
   </tlLogic>
   <tlLogic id="1271504797" offset="0" programID="0" type="static">
      <phase duration="16.2228244078" state="Gr"/>
      <phase duration="3.89856905048" state="yr"/>
      <phase duration="16.2228244078" state="rG"/>
      <phase duration="3.89856905048" state="ry"/>
   </tlLogic>
   <tlLogic id="1271504812" offset="0" programID="0" type="static">
      <phase duration="12.130448471" state="G"/>
      <phase duration="7.5239861634" state="y"/>
   </tlLogic>
   <tlLogic id="1271504813" offset="0" programID="0" type="static">
      <phase duration="15.6645200622" state="G"/>
      <phase duration="5.85507908224" state="y"/>
   </tlLogic>
   <tlLogic id="1271504814" offset="0" programID="0" type="static">
      <phase duration="20.6547794607" state="G"/>
      <phase duration="8.11163954214" state="y"/>
   </tlLogic>
   <tlLogic id="1271504815" offset="0" programID="0" type="static">
      <phase duration="26.0557605353" state="Gr"/>
      <phase duration="5.99520897156" state="yr"/>
      <phase duration="26.0557605353" state="rG"/>
      <phase duration="5.99520897156" state="ry"/>
   </tlLogic>
   <tlLogic id="1271504819" offset="0" programID="0" type="static">
      <phase duration="10.4739789555" state="Gr"/>
      <phase duration="4.15272739322" state="yr"/>
      <phase duration="10.4739789555" state="rG"/>
      <phase duration="4.15272739322" state="ry"/>
   </tlLogic>
   <tlLogic id="1271504824" offset="0" programID="0" type="static">
      <phase duration="22.8977092292" state="G"/>
      <phase duration="7.65660554016" state="y"/>
   </tlLogic>
   <tlLogic id="1271504827" offset="0" programID="0" type="static">
      <phase duration="24.2142095422" state="Gr"/>
      <phase duration="6.82534745089" state="yr"/>
      <phase duration="24.2142095422" state="rG"/>
      <phase duration="6.82534745089" state="ry"/>
   </tlLogic>
   <tlLogic id="1271504828" offset="0" programID="0" type="static">
      <phase duration="29.9533872266" state="GGrrr"/>
      <phase duration="6.50687153896" state="yyrrr"/>
      <phase duration="29.9533872266" state="rrGrr"/>
      <phase duration="6.50687153896" state="rryrr"/>
      <phase duration="29.9533872266" state="rrrGG"/>
      <phase duration="6.50687153896" state="rrryy"/>
   </tlLogic>
   <tlLogic id="1271504832" offset="0" programID="0" type="static">
      <phase duration="25.8792026755" state="Gr"/>
      <phase duration="9.04524384795" state="yr"/>
      <phase duration="25.8792026755" state="rG"/>
      <phase duration="9.04524384795" state="ry"/>
   </tlLogic>
   <tlLogic id="1271504834" offset="0" programID="0" type="static">
      <phase duration="23.4909819219" state="G"/>
      <phase duration="4.7220517989" state="y"/>
   </tlLogic>
   <tlLogic id="1271504838" offset="0" programID="0" type="static">
      <phase duration="15.3548048189" state="GGrrr"/>
      <phase duration="4.12289533049" state="yyrrr"/>
      <phase duration="15.3548048189" state="rrGGr"/>
      <phase duration="4.12289533049" state="rryyr"/>
      <phase duration="15.3548048189" state="rrrrG"/>
      <phase duration="4.12289533049" state="rrrry"/>
   </tlLogic>
   <tlLogic id="1271504841" offset="0" programID="0" type="static">
      <phase duration="20.8076951253" state="G"/>
      <phase duration="9.72385481532" state="y"/>
   </tlLogic>
   <tlLogic id="1271504842" offset="0" programID="0" type="static">
      <phase duration="25.6025606002" state="G"/>
      <phase duration="5.45948351957" state="y"/>
   </tlLogic>
   <tlLogic id="1271504845" offset="0" programID="0" type="static">
      <phase duration="8.83135816814" state="G"/>
      <phase duration="6.47462989785" state="y"/>
   </tlLogic>
   <tlLogic id="1271504850" offset="0" programID="0" type="static">
      <phase duration="12.5103023233" state="Gr"/>
      <phase duration="7.02035744965" state="yr"/>
      <phase duration="12.5103023233" state="rG"/>
      <phase duration="7.02035744965" state="ry"/>
   </tlLogic>
   <tlLogic id="1271504851" offset="0" programID="0" type="static">
      <phase duration="11.0051441667" state="G"/>
      <phase duration="3.85140038408" state="y"/>
   </tlLogic>
   <tlLogic id="1271504861" offset="0" programID="0" type="static">
      <phase duration="24.5499663633" state="G"/>
      <phase duration="8.19367177057" state="y"/>
   </tlLogic>
   <tlLogic id="1271504866" offset="0" programID="0" type="static">
      <phase duration="19.6530063203" state="G"/>
      <phase duration="7.48684701639" state="y"/>
   </tlLogic>
   <tlLogic id="1271504870" offset="0" programID="0" type="static">
      <phase duration="24.9789610732" state="G"/>
      <phase duration="8.76667220201" state="y"/>
   </tlLogic>
   <tlLogic id="1271504871" offset="0" programID="0" type="static">
      <phase duration="9.30542932184" state="GGrr"/>
      <phase duration="3.15986206883" state="yyrr"/>
      <phase duration="9.30542932184" state="rrGG"/>
      <phase duration="3.15986206883" state="rryy"/>
   </tlLogic>
   <tlLogic id="1271504873" offset="0" programID="0" type="static">
      <phase duration="7.62367091651" state="GGrrr"/>
      <phase duration="1.89950312684" state="yyrrr"/>
      <phase duration="7.62367091651" state="rrGrr"/>
      <phase duration="1.89950312684" state="rryrr"/>
      <phase duration="7.62367091651" state="rrrGG"/>
      <phase duration="1.89950312684" state="rrryy"/>
   </tlLogic>
   <tlLogic id="1271504874" offset="0" programID="0" type="static">
      <phase duration="34.6233624856" state="G"/>
      <phase duration="6.15438325636" state="y"/>
   </tlLogic>
   <tlLogic id="1271504875" offset="0" programID="0" type="static">
      <phase duration="25.9421921436" state="G"/>
      <phase duration="2.81551431545" state="y"/>
   </tlLogic>
   <tlLogic id="1271504881" offset="0" programID="0" type="static">
      <phase duration="34.6318530644" state="GGrrr"/>
      <phase duration="4.83658564069" state="yyrrr"/>
      <phase duration="34.6318530644" state="rrGrr"/>
      <phase duration="4.83658564069" state="rryrr"/>
      <phase duration="34.6318530644" state="rrrGG"/>
      <phase duration="4.83658564069" state="rrryy"/>
   </tlLogic>
   <tlLogic id="1271504883" offset="0" programID="0" type="static">
      <phase duration="3.4018685856" state="GGrrr"/>
      <phase duration="2.57109502738" state="yyrrr"/>
      <phase duration="3.4018685856" state="rrGrr"/>
      <phase duration="2.57109502738" state="rryrr"/>
      <phase duration="3.4018685856" state="rrrGG"/>
      <phase duration="2.57109502738" state="rrryy"/>
   </tlLogic>
   <tlLogic id="1271504887" offset="0" programID="0" type="static">
      <phase duration="23.6063349875" state="G"/>
      <phase duration="6.0235749595" state="y"/>
   </tlLogic>
   <tlLogic id="1271504895" offset="0" programID="0" type="static">
      <phase duration="31.4023864081" state="GGrrr"/>
      <phase duration="4.89615139076" state="yyrrr"/>
      <phase duration="31.4023864081" state="rrGrr"/>
      <phase duration="4.89615139076" state="rryrr"/>
      <phase duration="31.4023864081" state="rrrGG"/>
      <phase duration="4.89615139076" state="rrryy"/>
   </tlLogic>
   <tlLogic id="1271504901" offset="0" programID="0" type="static">
      <phase duration="24.8224743935" state="GGrrr"/>
      <phase duration="4.91089210878" state="yyrrr"/>
      <phase duration="24.8224743935" state="rrGrr"/>
      <phase duration="4.91089210878" state="rryrr"/>
      <phase duration="24.8224743935" state="rrrGG"/>
      <phase duration="4.91089210878" state="rrryy"/>
   </tlLogic>
   <tlLogic id="1271504902" offset="0" programID="0" type="static">
      <phase duration="27.2963126067" state="Gr"/>
      <phase duration="3.40484544793" state="yr"/>
      <phase duration="27.2963126067" state="rG"/>
      <phase duration="3.40484544793" state="ry"/>
   </tlLogic>
   <tlLogic id="1271504905" offset="0" programID="0" type="static">
      <phase duration="10.6249125785" state="G"/>
      <phase duration="7.72918440086" state="y"/>
   </tlLogic>
   <tlLogic id="1271504907" offset="0" programID="0" type="static">
      <phase duration="9.35572795774" state="G"/>
      <phase duration="2.26638194769" state="y"/>
   </tlLogic>
   <tlLogic id="1271504908" offset="0" programID="0" type="static">
      <phase duration="17.0484918739" state="G"/>
      <phase duration="5.15441666101" state="y"/>
   </tlLogic>
   <tlLogic id="1271504910" offset="0" programID="0" type="static">
      <phase duration="33.4090547363" state="Gr"/>
      <phase duration="7.07216351654" state="yr"/>
      <phase duration="33.4090547363" state="rG"/>
      <phase duration="7.07216351654" state="ry"/>
   </tlLogic>
   <tlLogic id="1271504911" offset="0" programID="0" type="static">
      <phase duration="31.7168618432" state="G"/>
      <phase duration="6.56099000248" state="y"/>
   </tlLogic>
   <tlLogic id="1271504914" offset="0" programID="0" type="static">
      <phase duration="32.1069301422" state="G"/>
      <phase duration="8.18338860275" state="y"/>
   </tlLogic>
   <tlLogic id="1299369677" offset="0" programID="0" type="static">
      <phase duration="25.8360063638" state="G"/>
      <phase duration="6.05307524428" state="y"/>
   </tlLogic>
   <tlLogic id="1299369684" offset="0" programID="0" type="static">
      <phase duration="18.1620745874" state="G"/>
      <phase duration="5.77013363819" state="y"/>
   </tlLogic>
   <tlLogic id="1299369686" offset="0" programID="0" type="static">
      <phase duration="2.8835862319" state="G"/>
      <phase duration="3.87260122709" state="y"/>
   </tlLogic>
   <tlLogic id="1299369699" offset="0" programID="0" type="static">
      <phase duration="17.3199280334" state="G"/>
      <phase duration="5.03903793636" state="y"/>
   </tlLogic>
   <tlLogic id="1299369701" offset="0" programID="0" type="static">
      <phase duration="31.6220718525" state="GGrrr"/>
      <phase duration="7.11369624364" state="yyrrr"/>
      <phase duration="31.6220718525" state="rrGrr"/>
      <phase duration="7.11369624364" state="rryrr"/>
      <phase duration="31.6220718525" state="rrrGG"/>
      <phase duration="7.11369624364" state="rrryy"/>
   </tlLogic>
   <tlLogic id="1312440659" offset="0" programID="0" type="static">
      <phase duration="24.0639010689" state="GGrrr"/>
      <phase duration="7.00857417108" state="yyrrr"/>
      <phase duration="24.0639010689" state="rrGrr"/>
      <phase duration="7.00857417108" state="rryrr"/>
      <phase duration="24.0639010689" state="rrrGG"/>
      <phase duration="7.00857417108" state="rrryy"/>
   </tlLogic>
   <tlLogic id="1312812204" offset="0" programID="0" type="static">
      <phase duration="9.83788707193" state="G"/>
      <phase duration="5.48282365185" state="y"/>
   </tlLogic>
   <tlLogic id="1360932319" offset="0" programID="0" type="static"/>
   <tlLogic id="1366801174" offset="0" programID="0" type="static">
      <phase duration="23.8405442764" state="G"/>
      <phase duration="5.5210658934" state="y"/>
   </tlLogic>
   <tlLogic id="1366801190" offset="0" programID="0" type="static"/>
   <tlLogic id="1366801194" offset="0" programID="0" type="static"/>
   <tlLogic id="1366801200" offset="0" programID="0" type="static">
      <phase duration="18.5860183856" state="Gr"/>
      <phase duration="6.65795661223" state="yr"/>
      <phase duration="18.5860183856" state="rG"/>
      <phase duration="6.65795661223" state="ry"/>
   </tlLogic>
   <tlLogic id="1366801217" offset="0" programID="0" type="static">
      <phase duration="11.9203676669" state="G"/>
      <phase duration="7.8284043949" state="y"/>
   </tlLogic>
   <tlLogic id="1366801262" offset="0" programID="0" type="static">
      <phase duration="31.7710701221" state="G"/>
      <phase duration="8.62067627072" state="y"/>
   </tlLogic>
   <tlLogic id="1366801267" offset="0" programID="0" type="static">
      <phase duration="33.8330876103" state="Grr"/>
      <phase duration="6.77544751341" state="yrr"/>
      <phase duration="33.8330876103" state="rGr"/>
      <phase duration="6.77544751341" state="ryr"/>
      <phase duration="33.8330876103" state="rrG"/>
      <phase duration="6.77544751341" state="rry"/>
   </tlLogic>
   <tlLogic id="1492679723" offset="0" programID="0" type="static">
      <phase duration="18.5500755969" state="GGrrr"/>
      <phase duration="2.69570995426" state="yyrrr"/>
      <phase duration="18.5500755969" state="rrGrr"/>
      <phase duration="2.69570995426" state="rryrr"/>
      <phase duration="18.5500755969" state="rrrGG"/>
      <phase duration="2.69570995426" state="rrryy"/>
   </tlLogic>
   <tlLogic id="1492679729" offset="0" programID="0" type="static">
      <phase duration="23.2070320571" state="G"/>
      <phase duration="7.07294765549" state="y"/>
   </tlLogic>
   <tlLogic id="1492679731" offset="0" programID="0" type="static">
      <phase duration="23.8857029557" state="Gr"/>
      <phase duration="9.24688307962" state="yr"/>
      <phase duration="23.8857029557" state="rG"/>
      <phase duration="9.24688307962" state="ry"/>
   </tlLogic>
   <tlLogic id="1492679741" offset="0" programID="0" type="static">
      <phase duration="31.341129848" state="G"/>
      <phase duration="5.92837091512" state="y"/>
   </tlLogic>
   <tlLogic id="1492679753" offset="0" programID="0" type="static">
      <phase duration="9.31138448073" state="G"/>
      <phase duration="5.06669179566" state="y"/>
   </tlLogic>
   <tlLogic id="1492679755" offset="0" programID="0" type="static">
      <phase duration="16.0664129434" state="G"/>
      <phase duration="5.20977020552" state="y"/>
   </tlLogic>
   <tlLogic id="1492729095" offset="0" programID="0" type="static">
      <phase duration="29.7709891942" state="G"/>
      <phase duration="7.57292655339" state="y"/>
   </tlLogic>
   <tlLogic id="1492729114" offset="0" programID="0" type="static">
      <phase duration="15.845361893" state="Gr"/>
      <phase duration="2.59875757354" state="yr"/>
      <phase duration="15.845361893" state="rG"/>
      <phase duration="2.59875757354" state="ry"/>
   </tlLogic>
   <tlLogic id="1492802032" offset="0" programID="0" type="static">
      <phase duration="26.6995131872" state="G"/>
      <phase duration="5.81346820769" state="y"/>
   </tlLogic>
   <tlLogic id="1492802065" offset="0" programID="0" type="static">
      <phase duration="13.5032073556" state="G"/>
      <phase duration="7.57609931964" state="y"/>
   </tlLogic>
   <tlLogic id="1492802066" offset="0" programID="0" type="static">
      <phase duration="9.61584204602" state="Gr"/>
      <phase duration="4.99457356902" state="yr"/>