<?xml version="1.0" ?>
<tlLogics>
   <tlLogic id="1000099503" offset="0" programID="0" type="static">
      <phase duration="12.5945378697" state="GGGrrrrrrrr"/>
      <phase duration="3.98561322212" state="yyyrrrrrrrr"/>
      <phase duration="12.5945378697" state="rrrGGGrrrrr"/>
      <phase duration="3.98561322212" state="rrryyyrrrrr"/>
      <phase duration="12.5945378697" state="rrrrrrGGGGG"/>
      <phase duration="3.98561322212" state="rrrrrryyyyy"/>
   </tlLogic>
   <tlLogic id="1000099607" offset="0" programID="0" type="static">
      <phase duration="32.7396152077" state="GGr"/>
      <phase duration="6.90280227356" state="yyr"/>
      <phase duration="32.7396152077" state="rrG"/>
      <phase duration="6.90280227356" state="rry"/>
   </tlLogic>
   <tlLogic id="1000099650" offset="0" programID="0" type="static">
      <phase duration="16.4577640999" state="G"/>
      <phase duration="3.87192601504" state="y"/>
   </tlLogic>
   <tlLogic id="1000099651" offset="0" programID="0" type="static">
      <phase duration="22.3993038065" state="GGrrrr"/>
      <phase duration="3.1424100666" state="yyrrrr"/>
      <phase duration="22.3993038065" state="rrGGrr"/>
      <phase duration="3.1424100666" state="rryyrr"/>
      <phase duration="22.3993038065" state="rrrrGG"/>
      <phase duration="3.1424100666" state="rrrryy"/>
   </tlLogic>
   <tlLogic id="1012321573" offset="0" programID="0" type="static">
      <phase duration="11.1134103367" state="Gr"/>
      <phase duration="9.76830302953" state="yr"/>
      <phase duration="11.1134103367" state="rG"/>
      <phase duration="9.76830302953" state="ry"/>
   </tlLogic>
   <tlLogic id="1012321580" offset="0" programID="0" type="static">
      <phase duration="24.7043692037" state="Gr"/>
      <phase duration="5.01605144957" state="yr"/>
      <phase duration="24.7043692037" state="rG"/>
      <phase duration="5.01605144957" state="ry"/>
   </tlLogic>
   <tlLogic id="1012326820" offset="0" programID="0" type="static">
      <phase duration="26.6980936097" state="G"/>
      <phase duration="7.22619462289" state="y"/>
   </tlLogic>
   <tlLogic id="1028832186" offset="0" programID="0" type="static"/>
   <tlLogic id="1037290808" offset="0" programID="0" type="static">
      <phase duration="12.8083679466" state="GGGrrrrrr"/>
      <phase duration="6.99837900679" state="yyyrrrrrr"/>
      <phase duration="12.8083679466" state="rrrGGGrrr"/>
      <phase duration="6.99837900679" state="rrryyyrrr"/>
      <phase duration="12.8083679466" state="rrrrrrGGG"/>
      <phase duration="6.99837900679" state="rrrrrryyy"/>
   </tlLogic>
   <tlLogic id="1037290822" offset="0" programID="0" type="static">
      <phase duration="16.756564373" state="GGrr"/>
      <phase duration="6.05289513693" state="yyrr"/>
      <phase duration="16.756564373" state="rrGG"/>
      <phase duration="6.05289513693" state="rryy"/>
   </tlLogic>
   <tlLogic id="1037290889" offset="0" programID="0" type="static">
      <phase duration="33.6369660102" state="GGrr"/>
      <phase duration="8.96214724667" state="yyrr"/>
      <phase duration="33.6369660102" state="rrGG"/>
      <phase duration="8.96214724667" state="rryy"/>
   </tlLogic>
   <tlLogic id="1037290944" offset="0" programID="0" type="static">
      <phase duration="21.5720637256" state="G"/>
      <phase duration="4.03246920945" state="y"/>
   </tlLogic>
   <tlLogic id="1040964328" offset="0" programID="0" type="static">
      <phase duration="31.2802648399" state="Gr"/>
      <phase duration="6.96195993975" state="yr"/>
      <phase duration="31.2802648399" state="rG"/>
      <phase duration="6.96195993975" state="ry"/>
   </tlLogic>
   <tlLogic id="1040964333" offset="0" programID="0" type="static">
      <phase duration="36.6370401322" state="Gr"/>
      <phase duration="9.7859979232" state="yr"/>
      <phase duration="36.6370401322" state="rG"/>
      <phase duration="9.7859979232" state="ry"/>
   </tlLogic>
   <tlLogic id="1045044715" offset="0" programID="0" type="static">
      <phase duration="14.2826127803" state="Gr"/>
      <phase duration="6.59800910059" state="yr"/>
      <phase duration="14.2826127803" state="rG"/>
      <phase duration="6.59800910059" state="ry"/>
   </tlLogic>
   <tlLogic id="1045044750" offset="0" programID="0" type="static">
      <phase duration="33.3901560046" state="Gr"/>
      <phase duration="5.02231797479" state="yr"/>
      <phase duration="33.3901560046" state="rG"/>
      <phase duration="5.02231797479" state="ry"/>
   </tlLogic>
   <tlLogic id="1045044796" offset="0" programID="0" type="static">
      <phase duration="35.8537565056" state="Gr"/>
      <phase duration="5.38222883754" state="yr"/>
      <phase duration="35.8537565056" state="rG"/>
      <phase duration="5.38222883754" state="ry"/>
   </tlLogic>
   <tlLogic id="1045044863" offset="0" programID="0" type="static">
      <phase duration="24.909632975" state="G"/>
      <phase duration="2.29778817322" state="y"/>
   </tlLogic>
   <tlLogic id="1062771990" offset="0" programID="0" type="static">
      <phase duration="18.1412470232" state="G"/>
      <phase duration="4.38701221522" state="y"/>
   </tlLogic>
   <tlLogic id="1109589987" offset="0" programID="0" type="static">
      <phase duration="31.922254618" state="GGrr"/>
      <phase duration="2.26423698863" state="yyrr"/>
      <phase duration="31.922254618" state="rrGG"/>
      <phase duration="2.26423698863" state="rryy"/>
   </tlLogic>
   <tlLogic id="1123630986" offset="0" programID="0" type="static">
      <phase duration="21.5180172102" state="G"/>
      <phase duration="3.62414778497" state="y"/>
   </tlLogic>
   <tlLogic id="1125127500" offset="0" programID="0" type="static">
      <phase duration="24.2801090055" state="GG"/>
      <phase duration="9.73468715092" state="yy"/>
   </tlLogic>
   <tlLogic id="1150667546" offset="0" programID="0" type="static">
      <phase duration="5.83207811208" state="G"/>
      <phase duration="6.18696417269" state="y"/>
   </tlLogic>
   <tlLogic id="1150667555" offset="0" programID="0" type="static">
      <phase duration="24.0610438816" state="Gr"/>
      <phase duration="5.04282329464" state="yr"/>
      <phase duration="24.0610438816" state="rG"/>
      <phase duration="5.04282329464" state="ry"/>
   </tlLogic>
   <tlLogic id="1150667560" offset="0" programID="0" type="static">
      <phase duration="36.9477454416" state="G"/>
      <phase duration="6.9456176247" state="y"/>
   </tlLogic>
   <tlLogic id="1150667568" offset="0" programID="0" type="static"/>
   <tlLogic id="1150667571" offset="0" programID="0" type="static">
      <phase duration="11.8430156577" state="G"/>
      <phase duration="1.55394438536" state="y"/>
   </tlLogic>
   <tlLogic id="1150667586" offset="0" programID="0" type="static">
      <phase duration="11.8003612783" state="G"/>
      <phase duration="1.72466038887" state="y"/>
   </tlLogic>
   <tlLogic id="1150667608" offset="0" programID="0" type="static">
      <phase duration="33.0375586594" state="Gr"/>
      <phase duration="8.41801355428" state="yr"/>
      <phase duration="33.0375586594" state="rG"/>
      <phase duration="8.41801355428" state="ry"/>
   </tlLogic>
   <tlLogic id="1156723834" offset="0" programID="0" type="static">
      <phase duration="17.1185922951" state="G"/>
      <phase duration="7.30579694965" state="y"/>
   </tlLogic>
   <tlLogic id="1200892937" offset="0" programID="0" type="static">
      <phase duration="28.9541298664" state="G"/>
      <phase duration="6.36945574261" state="y"/>
   </tlLogic>
   <tlLogic id="1201745399" offset="0" programID="0" type="static"/>
   <tlLogic id="1201745409" offset="0" programID="0" type="static">
      <phase duration="27.568347551" state="G"/>
      <phase duration="5.57682880648" state="y"/>
   </tlLogic>
   <tlLogic id="1211136497" offset="0" programID="0" type="static">
      <phase duration="23.9866997273" state="GGrr"/>
      <phase duration="6.14068785397" state="yyrr"/>
      <phase duration="23.9866997273" state="rrGG"/>
      <phase duration="6.14068785397" state="rryy"/>
   </tlLogic>
   <tlLogic id="1220020592" offset="0" programID="0" type="static">
      <phase duration="16.7180906017" state="Gr"/>
      <phase duration="5.79849563932" state="yr"/>
      <phase duration="16.7180906017" state="rG"/>
      <phase duration="5.79849563932" state="ry"/>
   </tlLogic>
   <tlLogic id="1220020630" offset="0" programID="0" type="static">
      <phase duration="22.8428632069" state="Gr"/>
      <phase duration="3.72406763621" state="yr"/>
      <phase duration="22.8428632069" state="rG"/>
      <phase duration="3.72406763621" state="ry"/>
   </tlLogic>
   <tlLogic id="1229522462" offset="0" programID="0" type="static">
      <phase duration="8.94418554972" state="G"/>
      <phase duration="5.97664913422" state="y"/>
   </tlLogic>
   <tlLogic id="1229522509" offset="0" programID="0" type="static">
      <phase duration="19.2683453869" state="G"/>
      <phase duration="4.79922022982" state="y"/>
   </tlLogic>
   <tlLogic id="1229522552" offset="0" programID="0" type="static">
      <phase duration="19.548820638" state="G"/>
      <phase duration="9.01377827389" state="y"/>
   </tlLogic>
   <tlLogic id="1252285079" offset="0" programID="0" type="static">
      <phase duration="26.5453065515" state="Gr"/>
      <phase duration="4.28095050314" state="yr"/>
      <phase duration="26.5453065515" state="rG"/>
      <phase duration="4.28095050314" state="ry"/>
   </tlLogic>
   <tlLogic id="1252285082" offset="0" programID="0" type="static">
      <phase duration="13.5811009336" state="G"/>
      <phase duration="4.1255181802" state="y"/>
   </tlLogic>
   <tlLogic id="1252285085" offset="0" programID="0" type="static">
      <phase duration="23.4037954652" state="Gr"/>
      <phase duration="1.96390862435" state="yr"/>
      <phase duration="23.4037954652" state="rG"/>
      <phase duration="1.96390862435" state="ry"/>
   </tlLogic>
   <tlLogic id="1252285087" offset="0" programID="0" type="static"/>
   <tlLogic id="1252285092" offset="0" programID="0" type="static">
      <phase duration="13.001289874" state="G"/>
      <phase duration="4.06117256115" state="y"/>
   </tlLogic>
   <tlLogic id="1252285107" offset="0" programID="0" type="static">
      <phase duration="30.5001768367" state="G"/>
      <phase duration="7.45041893175" state="y"/>
   </tlLogic>
   <tlLogic id="1252285137" offset="0" programID="0" type="static">
      <phase duration="9.47889021985" state="Gr"/>
      <phase duration="2.99533136138" state="yr"/>
      <phase duration="9.47889021985" state="rG"/>
      <phase duration="2.99533136138" state="ry"/>
   </tlLogic>
   <tlLogic id="1252285140" offset="0" programID="0" type="static">
      <phase duration="11.6855923864" state="Gr"/>
      <phase duration="9.97721066161" state="yr"/>
      <phase duration="11.6855923864" state="rG"/>
      <phase duration="9.97721066161" state="ry"/>
   </tlLogic>
   <tlLogic id="1271504738" offset="0" programID="0" type="static">
      <phase duration="34.496084677" state="Gr"/>
      <phase duration="3.86118565322" state="yr"/>
      <phase duration="34.496084677" state="rG"/>
      <phase duration="3.86118565322" state="ry"/>
   </tlLogic>
   <tlLogic id="1271504747" offset="0" programID="0" type="static">
      <phase duration="21.9763110362" state="Gr"/>
      <phase duration="3.96578962659" state="yr"/>
      <phase duration="21.9763110362" state="rG"/>
      <phase duration="3.96578962659" state="ry"/>
   </tlLogic>
   <tlLogic id="1271504757" offset="0" programID="0" type="static">
      <phase duration="7.98704468326" state="GGrrr"/>
      <phase duration="1.14291104754" state="yyrrr"/>
      <phase duration="7.98704468326" state="rrGrr"/>
      <phase duration="1.14291104754" state="rryrr"/>
      <phase duration="7.98704468326" state="rrrGG"/>
      <phase duration="1.14291104754" state="rrryy"/>
   </tlLogic>
   <tlLogic id="1271504758" offset="0" programID="0" type="static">
      <phase duration="17.8416163408" state="G"/>
      <phase duration="9.06796186721" state="y"/>
   </tlLogic>
   <tlLogic id="1271504763" offset="0" programID="0" type="static">
      <phase duration="20.378686014" state="G"/>
      <phase duration="5.32024039415" state="y"/>
   </tlLogic>
   <tlLogic id="1271504767" offset="0" programID="0" type="static">
      <phase duration="21.4210163526" state="G"/>
      <phase duration="9.63506793469" state="y"/>
   </tlLogic>
   <tlLogic id="1271504783" offset="0" programID="0" type="static">
      <phase duration="9.65114794799" state="Gr"/>
      <phase duration="4.82551211012" state="yr"/>
      <phase duration="9.65114794799" state="rG"/>
      <phase duration="4.82551211012" state="ry"/>
   </tlLogic>
   <tlLogic id="1271504788" offset="0" programID="0" type="static">
      <phase duration="29.2712267376" state="GGrrr"/>
      <phase duration="6.15624516277" state="yyrrr"/>
      <phase duration="29.2712267376" state="rrGGG"/>
      <phase duration="6.15624516277" state="rryyy"/>
   </tlLogic>
   <tlLogic id="1271504795" offset="0" programID="0" type="static">
      <phase duration="20.1152411654" state="G"/>
      <phase duration="6.85149219494" state="y"/>
   </tlLogic>
   <tlLogic id="1271504797" offset="0" programID="0" type="static">
      <phase duration="5.29537678606" state="Gr"/>
      <phase duration="5.75892672188" state="yr"/>
      <phase duration="5.29537678606" state="rG"/>
      <phase duration="5.75892672188" state="ry"/>
   </tlLogic>
   <tlLogic id="1271504812" offset="0" programID="0" type="static">
      <phase duration="14.422825405" state="G"/>
      <phase duration="9.80927777675" state="y"/>
   </tlLogic>
   <tlLogic id="1271504813" offset="0" programID="0" type="static">
      <phase duration="12.4393299778" state="G"/>
      <phase duration="5.14581235104" state="y"/>
   </tlLogic>
   <tlLogic id="1271504815" offset="0" programID="0" type="static">
      <phase duration="21.1226452681" state="Gr"/>
      <phase duration="6.4021543899" state="yr"/>
      <phase duration="21.1226452681" state="rG"/>
      <phase duration="6.4021543899" state="ry"/>
   </tlLogic>
   <tlLogic id="1271504819" offset="0" programID="0" type="static">
      <phase duration="24.4010402061" state="Gr"/>
      <phase duration="8.74851870393" state="yr"/>
      <phase duration="24.4010402061" state="rG"/>
      <phase duration="8.74851870393" state="ry"/>
   </tlLogic>
   <tlLogic id="1271504827" offset="0" programID="0" type="static">
      <phase duration="27.9456234516" state="Gr"/>
      <phase duration="5.22946782342" state="yr"/>
      <phase duration="27.9456234516" state="rG"/>
      <phase duration="5.22946782342" state="ry"/>
   </tlLogic>
   <tlLogic id="1271504828" offset="0" programID="0" type="static">
      <phase duration="29.1417825162" state="GGrrr"/>
      <phase duration="4.12967080517" state="yyrrr"/>
      <phase duration="29.1417825162" state="rrGrr"/>
      <phase duration="4.12967080517" state="rryrr"/>
      <phase duration="29.1417825162" state="rrrGG"/>
      <phase duration="4.12967080517" state="rrryy"/>
   </tlLogic>
   <tlLogic id="1271504832" offset="0" programID="0" type="static">
      <phase duration="27.797283699" state="Gr"/>
      <phase duration="9.52454800615" state="yr"/>
      <phase duration="27.797283699" state="rG"/>
      <phase duration="9.52454800615" state="ry"/>
   </tlLogic>
   <tlLogic id="1271504834" offset="0" programID="0" type="static">
      <phase duration="13.806091539" state="G"/>
      <phase duration="7.70254487861" state="y"/>
   </tlLogic>
   <tlLogic id="1271504838" offset="0" programID="0" type="static">
      <phase duration="19.6399423038" state="GGrrr"/>
      <phase duration="8.23265528787" state="yyrrr"/>
      <phase duration="19.6399423038" state="rrGGr"/>
      <phase duration="8.23265528787" state="rryyr"/>
      <phase duration="19.6399423038" state="rrrrG"/>
      <phase duration="8.23265528787" state="rrrry"/>
   </tlLogic>
   <tlLogic id="1271504841" offset="0" programID="0" type="static">
      <phase duration="12.9774784931" state="G"/>
      <phase duration="9.55409013691" state="y"/>
   </tlLogic>
   <tlLogic id="1271504844" offset="0" programID="0" type="static">
      <phase duration="16.5334431759" state="G"/>
      <phase duration="9.17069920784" state="y"/>
   </tlLogic>
   <tlLogic id="1271504850" offset="0" programID="0" type="static">
      <phase duration="8.91014238873" state="Gr"/>
      <phase duration="7.36930636295" state="yr"/>
      <phase duration="8.91014238873" state="rG"/>
      <phase duration="7.36930636295" state="ry"/>
   </tlLogic>
   <tlLogic id="1271504851" offset="0" programID="0" type="static">
      <phase duration="8.66813448437" state="G"/>
      <phase duration="8.54906819127" state="y"/>
   </tlLogic>
   <tlLogic id="1271504852" offset="0" programID="0" type="static">
      <phase duration="12.6791004942" state="G"/>
      <phase duration="7.31119605868" state="y"/>
   </tlLogic>
   <tlLogic id="1271504858" offset="0" programID="0" type="static">
      <phase duration="32.8164883969" state="G"/>
      <phase duration="6.03422573035" state="y"/>
   </tlLogic>
   <tlLogic id="1271504861" offset="0" programID="0" type="static">
      <phase duration="21.83187578" state="G"/>
      <phase duration="8.63608647998" state="y"/>
   </tlLogic>
   <tlLogic id="1271504866" offset="0" programID="0" type="static">
      <phase duration="25.1674964478" state="G"/>
      <phase duration="9.62160330694" state="y"/>
   </tlLogic>
   <tlLogic id="1271504875" offset="0" programID="0" type="static">
      <phase duration="27.7206145448" state="G"/>
      <phase duration="2.62752081809" state="y"/>
   </tlLogic>
   <tlLogic id="1271504881" offset="0" programID="0" type="static">
      <phase duration="33.4145664626" state="GGrrr"/>
      <phase duration="3.5500166675" state="yyrrr"/>
      <phase duration="33.4145664626" state="rrGrr"/>
      <phase duration="3.5500166675" state="rryrr"/>
      <phase duration="33.4145664626" state="rrrGG"/>
      <phase duration="3.5500166675" state="rrryy"/>
   </tlLogic>
   <tlLogic id="1271504883" offset="0" programID="0" type="static">
      <phase duration="12.9649073454" state="GGrrr"/>
      <phase duration="3.8265183765" state="yyrrr"/>
      <phase duration="12.9649073454" state="rrGrr"/>
      <phase duration="3.8265183765" state="rryrr"/>
      <phase duration="12.9649073454" state="rrrGG"/>
      <phase duration="3.8265183765" state="rrryy"/>
   </tlLogic>
   <tlLogic id="1271504887" offset="0" programID="0" type="static">
      <phase duration="19.8777902823" state="G"/>
      <phase duration="7.99300575054" state="y"/>
   </tlLogic>
   <tlLogic id="1271504895" offset="0" programID="0" type="static">
      <phase duration="22.125265174" state="GGrrr"/>
      <phase duration="3.21967958824" state="yyrrr"/>
      <phase duration="22.125265174" state="rrGrr"/>
      <phase duration="3.21967958824" state="rryrr"/>
      <phase duration="22.125265174" state="rrrGG"/>
      <phase duration="3.21967958824" state="rrryy"/>
   </tlLogic>
   <tlLogic id="1271504898" offset="0" programID="0" type="static">
      <phase duration="15.9644079667" state="Gr"/>
      <phase duration="2.35652680159" state="yr"/>
      <phase duration="15.9644079667" state="rG"/>
      <phase duration="2.35652680159" state="ry"/>
   </tlLogic>
   <tlLogic id="1271504899" offset="0" programID="0" type="static">
      <phase duration="3.27697670137" state="G"/>
      <phase duration="5.41837527084" state="y"/>
   </tlLogic>
   <tlLogic id="1271504902" offset="0" programID="0" type="static">
      <phase duration="30.5127717815" state="Gr"/>
      <phase duration="3.69800371951" state="yr"/>
      <phase duration="30.5127717815" state="rG"/>
      <phase duration="3.69800371951" state="ry"/>
   </tlLogic>
   <tlLogic id="1271504907" offset="0" programID="0" type="static">
      <phase duration="6.21590627006" state="G"/>
      <phase duration="8.88486170717" state="y"/>
   </tlLogic>
   <tlLogic id="1271504908" offset="0" programID="0" type="static">
      <phase duration="8.21658323575" state="G"/>
      <phase duration="2.89796776817" state="y"/>
   </tlLogic>
   <tlLogic id="1271504910" offset="0" programID="0" type="static">
      <phase duration="28.7853924271" state="Gr"/>
      <phase duration="9.3146140255" state="yr"/>
      <phase duration="28.7853924271" state="rG"/>
      <phase duration="9.3146140255" state="ry"/>
   </tlLogic>
   <tlLogic id="1271504914" offset="0" programID="0" type="static">
      <phase duration="28.3722651633" state="G"/>
      <phase duration="6.71432097101" state="y"/>
   </tlLogic>
   <tlLogic id="1299369677" offset="0" programID="0" type="static">
      <phase duration="25.91167497" state="G"/>
      <phase duration="5.48107363404" state="y"/>
   </tlLogic>
   <tlLogic id="1299369684" offset="0" programID="0" type="static">
      <phase duration="28.9072675841" state="G"/>
      <phase duration="9.99530198224" state="y"/>
   </tlLogic>
   <tlLogic id="1299369694" offset="0" programID="0" type="static">
      <phase duration="31.3894584595" state="G"/>
      <phase duration="6.52808844257" state="y"/>
   </tlLogic>
   <tlLogic id="1299369699" offset="0" programID="0" type="static">
      <phase duration="13.4074825158" state="G"/>
      <phase duration="6.80982706786" state="y"/>
   </tlLogic>
   <tlLogic id="1299369701" offset="0" programID="0" type="static">
      <phase duration="32.010561522" state="GGrrr"/>
      <phase duration="8.47969637997" state="yyrrr"/>
      <phase duration="32.010561522" state="rrGrr"/>
      <phase duration="8.47969637997" state="rryrr"/>
      <phase duration="32.010561522" state="rrrGG"/>
      <phase duration="8.47969637997" state="rrryy"/>
   </tlLogic>
   <tlLogic id="1312440651" offset="0" programID="0" type="static">
      <phase duration="2.19084802412" state="G"/>
      <phase duration="6.01879834912" state="y"/>
   </tlLogic>
   <tlLogic id="1312440659" offset="0" programID="0" type="static">
      <phase duration="11.8175468979" state="GGrrr"/>
      <phase duration="7.02000906129" state="yyrrr"/>
      <phase duration="11.8175468979" state="rrGrr"/>
      <phase duration="7.02000906129" state="rryrr"/>
      <phase duration="11.8175468979" state="rrrGG"/>
      <phase duration="7.02000906129" state="rrryy"/>
   </tlLogic>
   <tlLogic id="1312812204" offset="0" programID="0" type="static">
      <phase duration="5.50091070673" state="G"/>
      <phase duration="5.21495601869" state="y"/>
   </tlLogic>
   <tlLogic id="1353566368" offset="0" programID="0" type="static">
      <phase duration="30.5427500137" state="G"/>
      <phase duration="7.20093852828" state="y"/>
   </tlLogic>
   <tlLogic id="1353566371" offset="0" programID="0" type="static">
      <phase duration="13.8279910645" state="G"/>
      <phase duration="3.92657190653" state="y"/>
   </tlLogic>
   <tlLogic id="1360932319" offset="0" programID="0" type="static"/>
   <tlLogic id="1366801174" offset="0" programID="0" type="static">
      <phase duration="12.4454481277" state="G"/>
      <phase duration="7.78510114394" state="y"/>
   </tlLogic>
   <tlLogic id="1366801190" offset="0" programID="0" type="static"/>
   <tlLogic id="1366801200" offset="0" programID="0" type="static">
      <phase duration="14.9003723425" state="Gr"/>
      <phase duration="7.04666036738" state="yr"/>
      <phase duration="14.9003723425" state="rG"/>
      <phase duration="7.04666036738" state="ry"/>
   </tlLogic>
   <tlLogic id="1366801217" offset="0" programID="0" type="static">
      <phase duration="6.86675547984" state="G"/>
      <phase duration="9.24507303771" state="y"/>
   </tlLogic>
   <tlLogic id="1366801262" offset="0" programID="0" type="static">
      <phase duration="35.4494605443" state="G"/>
      <phase duration="9.24699765659" state="y"/>
   </tlLogic>
   <tlLogic id="1366801267" offset="0" programID="0" type="static">
      <phase duration="35.09686952" state="Grr"/>
      <phase duration="6.77394453873" state="yrr"/>
      <phase duration="35.09686952" state="rGr"/>
      <phase duration="6.77394453873" state="ryr"/>
      <phase duration="35.09686952" state="rrG"/>
      <phase duration="6.77394453873" state="rry"/>
   </tlLogic>
   <tlLogic id="1492679726" offset="0" programID="0" type="static">
      <phase duration="10.0723814633" state="G"/>
      <phase duration="4.93159639584" state="y"/>
   </tlLogic>
   <tlLogic id="1492679729" offset="0" programID="0" type="static">
      <phase duration="20.1295338671" state="G"/>
      <phase duration="8.60674277283" state="y"/>
   </tlLogic>
   <tlLogic id="1492679731" offset="0" programID="0" type="static">
      <phase duration="20.3129912703" state="Gr"/>
      <phase duration="7.8152184853" state="yr"/>
      <phase duration="20.3129912703" state="rG"/>
      <phase duration="7.8152184853" state="ry"/>
   </tlLogic>
   <tlLogic id="1492679753" offset="0" programID="0" type="static">
      <phase duration="9.71894844647" state="G"/>
      <phase duration="5.36925711582" state="y"/>
   </tlLogic>
   <tlLogic id="1492679755" offset="0" programID="0" type="static">
      <phase duration="23.5823345136" state="G"/>
      <phase duration="8.42246480033" state="y"/>
   </tlLogic>
   <tlLogic id="1492729095" offset="0" programID="0" type="static">
      <phase duration="30.7143353546" state="G"/>
      <phase duration="7.41504375619" state="y"/>
   </tlLogic>
   <tlLogic id="1492729114" offset="0" programID="0" type="static">
      <phase duration="21.0998908131" state="Gr"/>
      <phase duration="7.85105936661" state="yr"/>
      <phase duration="21.0998908131" state="rG"/>
      <phase duration="7.85105936661" state="ry"/>
   </tlLogic>
   <tlLogic id="1492802032" offset="0" programID="0" type="static">
      <phase duration="25.9060688636" state="G"/>
      <phase duration="6.76646318152" state="y"/>
   </tlLogic>
   <tlLogic id="1492802033" offset="0" programID="0" type="static">
      <phase duration="33.1706573621" state="GGrrr"/>
      <phase duration="4.93214474443" state="yyrrr"/>
      <phase duration="33.1706573621" state="rrGrr"/>
      <phase duration="4.93214474443" state="rryrr"/>
      <phase duration="33.1706573621" state="rrrGG"/>
      <phase duration="4.93214474443" state="rrryy"/>
   </tlLogic>
   <tlLogic id="1492802034" offset="0" programID="0" type="static">
      <phase duration="34.6602883187" state="G"/>
      <phase duration="7.50576541792" state="y"/>
   </tlLogic>
   <tlLogic id="1492802066" offset="0" programID="0" type="static">
      <phase duration="16.2906206475" state="Gr"/>
      <phase duration="5.1752971707" state="yr"/>
      <phase duration="16.2906206475" state="rG"/>
      <phase duration="5.1752971707" state="ry"/>
   </tlLogic>
   <tlLogic id="1492802067" offset="0" programID="0" type="static">
      <phase duration="15.7883501641" state="G"/>
      <phase duration="7.79190829016" state="y"/>
   </tlLogic>
   <tlLogic id="1492802093" offset="0" programID="0" type="static">
      <phase duration="19.3009915272" state="GGrrr"/>
      <phase duration="8.14417348343" state="yyrrr"/>
      <phase duration="19.3009915272" state="rrGGG"/>
      <phase duration="8.14417348343" state="rryyy"/>
   </tlLogic>
   <tlLogic id="1492802133" offset="0" programID="0" type="static">
      <phase duration="12.4129200495" state="Grr"/>
      <phase duration="4.68016720951" state="yrr"/>
      <phase duration="12.4129200495" state="rGr"/>
      <phase duration="4.68016720951" state="ryr"/>
      <phase duration="12.4129200495" state="rrG"/>
      <phase duration="4.68016720951" state="rry"/>
   </tlLogic>
   <tlLogic id="1492802180" offset="0" programID="0" type="static">
      <phase duration="9.85925993503" state="GGrrr"/>
      <phase duration="6.53618750484" state="yyrrr"/>
      <phase duration="9.85925993503" state="rrGrr"/>
      <phase duration="6.53618750484" state="rryrr"/>
      <phase duration="9.85925993503" state="rrrGG"/>
      <phase duration="6.53618750484" state="rrryy"/>
   </tlLogic>
   <tlLogic id="1492802187" offset="0" programID="0" type="static">
      <phase duration="22.5362962083" state="Gr"/>
      <phase duration="8.89980127893" state="yr"/>
      <phase duration="22.5362962083" state="rG"/>
      <phase duration="8.89980127893" state="ry"/>
   </tlLogic>
   <tlLogic id="1492802188" offset="0" programID="0" type="static">
      <phase duration="31.8740830067" state="G"/>
      <phase duration="8.287695901" state="y"/>
   </tlLogic>
   <tlLogic id="1520433227" offset="0" programID="0" type="static">
      <phase duration="20.7195909144" state="Gr"/>
      <phase duration="5.82555755451" state="yr"/>
      <phase duration="20.7195909144" state="rG"/>
      <phase duration="5.82555755451" state="ry"/>
   </tlLogic>
   <tlLogic id="1523162665" offset="0" programID="0" type="static">
      <phase duration="36.3796893398" state="G"/>
      <phase duration="9.98627404923" state="y"/>
   </tlLogic>
   <tlLogic id="1523162688" offset="0" programID="0" type="static">
      <phase duration="38.2659979044" state="Gr"/>
      <phase duration="7.11933021761" state="yr"/>
      <phase duration="38.2659979044" state="rG"/>
      <phase duration="7.11933021761" state="ry"/>
   </tlLogic>
   <tlLogic id="1546385396" offset="0" programID="0" type="static">
      <phase duration="10.7083795148" state="G"/>
      <phase duration="6.66389096084" state="y"/>
   </tlLogic>
   <tlLogic id="1588583830" offset="0" programID="0" type="static">
      <phase duration="17.0741493765" state="GGrr"/>
      <phase duration="6.25089970036" state="yyrr"/>
      <phase duration="17.0741493765" state="rrGG"/>
      <phase duration="6.25089970036" state="rryy"/>
   </tlLogic>
   <tlLogic id="1627542972" offset="0" programID="0" type="static">