<?xml version="1.0" ?>
<tlLogics>
   <tlLogic id="1000099503" offset="0" programID="0" type="static">
      <phase duration="8.36699604827" state="GGGrrrrrrrr"/>
      <phase duration="1.61798379005" state="yyyrrrrrrrr"/>
      <phase duration="8.36699604827" state="rrrGGGrrrrr"/>
      <phase duration="1.61798379005" state="rrryyyrrrrr"/>
      <phase duration="8.36699604827" state="rrrrrrGGGGG"/>
      <phase duration="1.61798379005" state="rrrrrryyyyy"/>
   </tlLogic>
   <tlLogic id="1000099544" offset="0" programID="0" type="static">
      <phase duration="11.3957619405" state="GGrrr"/>
      <phase duration="5.76052098406" state="yyrrr"/>
      <phase duration="11.3957619405" state="rrGGr"/>
      <phase duration="5.76052098406" state="rryyr"/>
      <phase duration="11.3957619405" state="rrrrG"/>
      <phase duration="5.76052098406" state="rrrry"/>
   </tlLogic>
   <tlLogic id="1000099591" offset="0" programID="0" type="static">
      <phase duration="37.6857888559" state="GGrr"/>
      <phase duration="8.02582921252" state="yyrr"/>
      <phase duration="37.6857888559" state="rrGG"/>
      <phase duration="8.02582921252" state="rryy"/>
   </tlLogic>
   <tlLogic id="1000099607" offset="0" programID="0" type="static">
      <phase duration="37.9774028506" state="GGr"/>
      <phase duration="9.93916941463" state="yyr"/>
      <phase duration="37.9774028506" state="rrG"/>
      <phase duration="9.93916941463" state="rry"/>
   </tlLogic>
   <tlLogic id="1000099650" offset="0" programID="0" type="static">
      <phase duration="22.6155134207" state="G"/>
      <phase duration="8.33747444841" state="y"/>
   </tlLogic>
   <tlLogic id="1000099651" offset="0" programID="0" type="static">
      <phase duration="21.10963041" state="GGrrrr"/>
      <phase duration="2.50765643706" state="yyrrrr"/>
      <phase duration="21.10963041" state="rrGGrr"/>
      <phase duration="2.50765643706" state="rryyrr"/>
      <phase duration="21.10963041" state="rrrrGG"/>
      <phase duration="2.50765643706" state="rrrryy"/>
   </tlLogic>
   <tlLogic id="1000099741" offset="0" programID="0" type="static">
      <phase duration="15.4289491226" state="GGrr"/>
      <phase duration="1.34566622888" state="yyrr"/>
      <phase duration="15.4289491226" state="rrGG"/>
      <phase duration="1.34566622888" state="rryy"/>
   </tlLogic>
   <tlLogic id="1012321573" offset="0" programID="0" type="static">
      <phase duration="13.9235650054" state="Gr"/>
      <phase duration="8.66791979046" state="yr"/>
      <phase duration="13.9235650054" state="rG"/>
      <phase duration="8.66791979046" state="ry"/>
   </tlLogic>
   <tlLogic id="1012321580" offset="0" programID="0" type="static">
      <phase duration="1.76875641895" state="Gr"/>
      <phase duration="2.46091445848" state="yr"/>
      <phase duration="1.76875641895" state="rG"/>
      <phase duration="2.46091445848" state="ry"/>
   </tlLogic>
   <tlLogic id="1037290822" offset="0" programID="0" type="static">
      <phase duration="4.29548135973" state="GGrr"/>
      <phase duration="5.9923763729" state="yyrr"/>
      <phase duration="4.29548135973" state="rrGG"/>
      <phase duration="5.9923763729" state="rryy"/>
   </tlLogic>
   <tlLogic id="1037290889" offset="0" programID="0" type="static">
      <phase duration="33.4177014266" state="GGrr"/>
      <phase duration="8.11425980528" state="yyrr"/>
      <phase duration="33.4177014266" state="rrGG"/>
      <phase duration="8.11425980528" state="rryy"/>
   </tlLogic>
   <tlLogic id="1037290944" offset="0" programID="0" type="static">
      <phase duration="36.4881930916" state="G"/>
      <phase duration="8.25354164308" state="y"/>
   </tlLogic>
   <tlLogic id="1040964328" offset="0" programID="0" type="static">
      <phase duration="33.5194473837" state="Gr"/>
      <phase duration="5.98920363577" state="yr"/>
      <phase duration="33.5194473837" state="rG"/>
      <phase duration="5.98920363577" state="ry"/>
   </tlLogic>
   <tlLogic id="1040964333" offset="0" programID="0" type="static">
      <phase duration="34.4315563741" state="Gr"/>
      <phase duration="2.72774375745" state="yr"/>
      <phase duration="34.4315563741" state="rG"/>
      <phase duration="2.72774375745" state="ry"/>
   </tlLogic>
   <tlLogic id="1045044715" offset="0" programID="0" type="static">
      <phase duration="11.0685642559" state="Gr"/>
      <phase duration="9.82644704661" state="yr"/>
      <phase duration="11.0685642559" state="rG"/>
      <phase duration="9.82644704661" state="ry"/>
   </tlLogic>
   <tlLogic id="1045044750" offset="0" programID="0" type="static">
      <phase duration="34.692030117" state="Gr"/>
      <phase duration="8.24071544586" state="yr"/>
      <phase duration="34.692030117" state="rG"/>
      <phase duration="8.24071544586" state="ry"/>
   </tlLogic>
   <tlLogic id="1045044796" offset="0" programID="0" type="static">
      <phase duration="34.7515963033" state="Gr"/>
      <phase duration="1.54824282505" state="yr"/>
      <phase duration="34.7515963033" state="rG"/>
      <phase duration="1.54824282505" state="ry"/>
   </tlLogic>
   <tlLogic id="1045044863" offset="0" programID="0" type="static">
      <phase duration="30.9128223685" state="G"/>
      <phase duration="1.72253218545" state="y"/>
   </tlLogic>
   <tlLogic id="1062771990" offset="0" programID="0" type="static">
      <phase duration="19.0420104032" state="G"/>
      <phase duration="3.97151590085" state="y"/>
   </tlLogic>
   <tlLogic id="1109589987" offset="0" programID="0" type="static">
      <phase duration="26.7070499368" state="GGrr"/>
      <phase duration="2.56673882276" state="yyrr"/>
      <phase duration="26.7070499368" state="rrGG"/>
      <phase duration="2.56673882276" state="rryy"/>
   </tlLogic>
   <tlLogic id="1123630986" offset="0" programID="0" type="static">
      <phase duration="20.4913661814" state="G"/>
      <phase duration="2.26089118778" state="y"/>
   </tlLogic>
   <tlLogic id="1125127500" offset="0" programID="0" type="static">
      <phase duration="13.0144021043" state="GG"/>
      <phase duration="9.65473730428" state="yy"/>
   </tlLogic>
   <tlLogic id="1149210260" offset="0" programID="0" type="static">
      <phase duration="37.578140921" state="Gr"/>
      <phase duration="2.87834015562" state="yr"/>
      <phase duration="37.578140921" state="rG"/>
      <phase duration="2.87834015562" state="ry"/>
   </tlLogic>
   <tlLogic id="1150667571" offset="0" programID="0" type="static">
      <phase duration="3.81251382772" state="G"/>
      <phase duration="1.13431476761" state="y"/>
   </tlLogic>
   <tlLogic id="1150667604" offset="0" programID="0" type="static">
      <phase duration="29.7334085575" state="Gr"/>
      <phase duration="5.97590821097" state="yr"/>
      <phase duration="29.7334085575" state="rG"/>
      <phase duration="5.97590821097" state="ry"/>
   </tlLogic>
   <tlLogic id="1150667608" offset="0" programID="0" type="static">
      <phase duration="39.7868244103" state="Gr"/>
      <phase duration="1.00953480918" state="yr"/>
      <phase duration="39.7868244103" state="rG"/>
      <phase duration="1.00953480918" state="ry"/>
   </tlLogic>
   <tlLogic id="1150667618" offset="0" programID="0" type="static">
      <phase duration="35.1613520664" state="G"/>
      <phase duration="3.72283485216" state="y"/>
   </tlLogic>
   <tlLogic id="1156723839" offset="0" programID="0" type="static">
      <phase duration="34.3333968502" state="Gr"/>
      <phase duration="5.82790391422" state="yr"/>
      <phase duration="34.3333968502" state="rG"/>
      <phase duration="5.82790391422" state="ry"/>
   </tlLogic>
   <tlLogic id="1200892937" offset="0" programID="0" type="static">
      <phase duration="24.3902406617" state="G"/>
      <phase duration="3.14813058383" state="y"/>
   </tlLogic>
   <tlLogic id="1201745377" offset="0" programID="0" type="static">
      <phase duration="10.6342381908" state="G"/>
      <phase duration="8.86291260769" state="y"/>
   </tlLogic>
   <tlLogic id="1211136497" offset="0" programID="0" type="static">
      <phase duration="27.8684326388" state="GGrr"/>
      <phase duration="5.88481934914" state="yyrr"/>
      <phase duration="27.8684326388" state="rrGG"/>
      <phase duration="5.88481934914" state="rryy"/>
   </tlLogic>
   <tlLogic id="1220020505" offset="0" programID="0" type="static">
      <phase duration="13.0926266633" state="G"/>
      <phase duration="7.83674975022" state="y"/>
   </tlLogic>
   <tlLogic id="1220020545" offset="0" programID="0" type="static">
      <phase duration="30.8927833767" state="GGrrr"/>
      <phase duration="3.82134211927" state="yyrrr"/>
      <phase duration="30.8927833767" state="rrGrr"/>
      <phase duration="3.82134211927" state="rryrr"/>
      <phase duration="30.8927833767" state="rrrGG"/>
      <phase duration="3.82134211927" state="rrryy"/>
   </tlLogic>
   <tlLogic id="1220020588" offset="0" programID="0" type="static">
      <phase duration="21.7764715425" state="GGrr"/>
      <phase duration="4.05081214871" state="yyrr"/>
      <phase duration="21.7764715425" state="rrGG"/>
      <phase duration="4.05081214871" state="rryy"/>
   </tlLogic>
   <tlLogic id="1220020630" offset="0" programID="0" type="static">
      <phase duration="31.1438707416" state="Gr"/>
      <phase duration="2.6735780208" state="yr"/>
      <phase duration="31.1438707416" state="rG"/>
      <phase duration="2.6735780208" state="ry"/>
   </tlLogic>
   <tlLogic id="1220020679" offset="0" programID="0" type="static">
      <phase duration="39.3795316022" state="GGrr"/>
      <phase duration="2.80625197779" state="yyrr"/>
      <phase duration="39.3795316022" state="rrGG"/>
      <phase duration="2.80625197779" state="rryy"/>
   </tlLogic>
   <tlLogic id="1229522462" offset="0" programID="0" type="static">
      <phase duration="7.84514191193" state="G"/>
      <phase duration="2.65836787259" state="y"/>
   </tlLogic>
   <tlLogic id="1229522509" offset="0" programID="0" type="static">
      <phase duration="17.8252276114" state="G"/>
      <phase duration="7.19112449295" state="y"/>
   </tlLogic>
   <tlLogic id="1252285079" offset="0" programID="0" type="static">
      <phase duration="30.4291998857" state="Gr"/>
      <phase duration="2.32889234053" state="yr"/>
      <phase duration="30.4291998857" state="rG"/>
      <phase duration="2.32889234053" state="ry"/>
   </tlLogic>
   <tlLogic id="1252285082" offset="0" programID="0" type="static">
      <phase duration="32.0486989566" state="G"/>
      <phase duration="9.42772466653" state="y"/>
   </tlLogic>
   <tlLogic id="1252285087" offset="0" programID="0" type="static"/>
   <tlLogic id="1252285092" offset="0" programID="0" type="static">
      <phase duration="17.6606371025" state="G"/>
      <phase duration="4.17845676245" state="y"/>
   </tlLogic>
   <tlLogic id="1252285107" offset="0" programID="0" type="static">
      <phase duration="30.9234003181" state="G"/>
      <phase duration="2.78077653977" state="y"/>
   </tlLogic>
   <tlLogic id="1252285137" offset="0" programID="0" type="static">
      <phase duration="1.19993622928" state="Gr"/>
      <phase duration="3.72535371194" state="yr"/>
      <phase duration="1.19993622928" state="rG"/>
      <phase duration="3.72535371194" state="ry"/>
   </tlLogic>
   <tlLogic id="1252285140" offset="0" programID="0" type="static">
      <phase duration="14.3808293599" state="Gr"/>
      <phase duration="9.20749573873" state="yr"/>
      <phase duration="14.3808293599" state="rG"/>
      <phase duration="9.20749573873" state="ry"/>
   </tlLogic>
   <tlLogic id="1258258237" offset="0" programID="0" type="static">
      <phase duration="7.41103409308" state="GGr"/>
      <phase duration="8.44445237492" state="yyr"/>
      <phase duration="7.41103409308" state="rrG"/>
      <phase duration="8.44445237492" state="rry"/>
   </tlLogic>
   <tlLogic id="1271504738" offset="0" programID="0" type="static">
      <phase duration="36.9178374485" state="Gr"/>
      <phase duration="1.71504513191" state="yr"/>
      <phase duration="36.9178374485" state="rG"/>
      <phase duration="1.71504513191" state="ry"/>
   </tlLogic>
   <tlLogic id="1271504747" offset="0" programID="0" type="static">
      <phase duration="9.99013873121" state="Gr"/>
      <phase duration="1.42631178798" state="yr"/>
      <phase duration="9.99013873121" state="rG"/>
      <phase duration="1.42631178798" state="ry"/>
   </tlLogic>
   <tlLogic id="1271504748" offset="0" programID="0" type="static">
      <phase duration="33.6260910439" state="Gr"/>
      <phase duration="7.67085966942" state="yr"/>
      <phase duration="33.6260910439" state="rG"/>
      <phase duration="7.67085966942" state="ry"/>
   </tlLogic>
   <tlLogic id="1271504757" offset="0" programID="0" type="static">
      <phase duration="16.1667546723" state="GGrrr"/>
      <phase duration="1.81022912589" state="yyrrr"/>
      <phase duration="16.1667546723" state="rrGrr"/>
      <phase duration="1.81022912589" state="rryrr"/>
      <phase duration="16.1667546723" state="rrrGG"/>
      <phase duration="1.81022912589" state="rrryy"/>
   </tlLogic>
   <tlLogic id="1271504758" offset="0" programID="0" type="static">
      <phase duration="31.7187346568" state="G"/>
      <phase duration="8.43274911562" state="y"/>
   </tlLogic>
   <tlLogic id="1271504762" offset="0" programID="0" type="static">
      <phase duration="7.47802919595" state="G"/>
      <phase duration="5.30414300461" state="y"/>
   </tlLogic>
   <tlLogic id="1271504766" offset="0" programID="0" type="static">
      <phase duration="12.6378012714" state="Gr"/>
      <phase duration="7.61443413341" state="yr"/>
      <phase duration="12.6378012714" state="rG"/>
      <phase duration="7.61443413341" state="ry"/>
   </tlLogic>
   <tlLogic id="1271504767" offset="0" programID="0" type="static">
      <phase duration="22.9257552529" state="G"/>
      <phase duration="4.33491216666" state="y"/>
   </tlLogic>
   <tlLogic id="1271504773" offset="0" programID="0" type="static">
      <phase duration="35.5069662476" state="GGrrr"/>
      <phase duration="9.26156504487" state="yyrrr"/>
      <phase duration="35.5069662476" state="rrGrr"/>
      <phase duration="9.26156504487" state="rryrr"/>
      <phase duration="35.5069662476" state="rrrGG"/>
      <phase duration="9.26156504487" state="rrryy"/>
   </tlLogic>
   <tlLogic id="1271504781" offset="0" programID="0" type="static">
      <phase duration="34.6492888552" state="GGrrr"/>
      <phase duration="8.18023376362" state="yyrrr"/>
      <phase duration="34.6492888552" state="rrGrr"/>
      <phase duration="8.18023376362" state="rryrr"/>
      <phase duration="34.6492888552" state="rrrGG"/>
      <phase duration="8.18023376362" state="rrryy"/>
   </tlLogic>
   <tlLogic id="1271504788" offset="0" programID="0" type="static">
      <phase duration="31.5475911722" state="GGrrr"/>
      <phase duration="7.17182052208" state="yyrrr"/>
      <phase duration="31.5475911722" state="rrGGG"/>
      <phase duration="7.17182052208" state="rryyy"/>
   </tlLogic>
   <tlLogic id="1271504795" offset="0" programID="0" type="static">
      <phase duration="17.197320366" state="G"/>
      <phase duration="7.98058988264" state="y"/>
   </tlLogic>
   <tlLogic id="1271504812" offset="0" programID="0" type="static">
      <phase duration="15.7031193809" state="G"/>
      <phase duration="9.62017058054" state="y"/>
   </tlLogic>
   <tlLogic id="1271504813" offset="0" programID="0" type="static">
      <phase duration="16.2022520919" state="G"/>
      <phase duration="6.19397721359" state="y"/>
   </tlLogic>
   <tlLogic id="1271504814" offset="0" programID="0" type="static">
      <phase duration="25.2597217743" state="G"/>
      <phase duration="8.27646724527" state="y"/>
   </tlLogic>
   <tlLogic id="1271504815" offset="0" programID="0" type="static">
      <phase duration="29.4648998633" state="Gr"/>
      <phase duration="4.0940016004" state="yr"/>
      <phase duration="29.4648998633" state="rG"/>
      <phase duration="4.0940016004" state="ry"/>
   </tlLogic>
   <tlLogic id="1271504817" offset="0" programID="0" type="static">
      <phase duration="8.51133955482" state="G"/>
      <phase duration="2.77910626404" state="y"/>
   </tlLogic>
   <tlLogic id="1271504819" offset="0" programID="0" type="static">
      <phase duration="8.79325372223" state="Gr"/>
      <phase duration="4.40497477874" state="yr"/>
      <phase duration="8.79325372223" state="rG"/>
      <phase duration="4.40497477874" state="ry"/>
   </tlLogic>
   <tlLogic id="1271504822" offset="0" programID="0" type="static">
      <phase duration="16.8104887828" state="G"/>
      <phase duration="2.47074669354" state="y"/>
   </tlLogic>
   <tlLogic id="1271504824" offset="0" programID="0" type="static">
      <phase duration="19.218636625" state="G"/>
      <phase duration="8.26763182222" state="y"/>
   </tlLogic>
   <tlLogic id="1271504827" offset="0" programID="0" type="static">
      <phase duration="23.4927629098" state="Gr"/>
      <phase duration="2.76082262549" state="yr"/>
      <phase duration="23.4927629098" state="rG"/>
      <phase duration="2.76082262549" state="ry"/>
   </tlLogic>
   <tlLogic id="1271504828" offset="0" programID="0" type="static">
      <phase duration="33.8653966703" state="GGrrr"/>
      <phase duration="6.61875820903" state="yyrrr"/>
      <phase duration="33.8653966703" state="rrGrr"/>
      <phase duration="6.61875820903" state="rryrr"/>
      <phase duration="33.8653966703" state="rrrGG"/>
      <phase duration="6.61875820903" state="rrryy"/>
   </tlLogic>
   <tlLogic id="1271504832" offset="0" programID="0" type="static">
      <phase duration="30.1530318644" state="Gr"/>
      <phase duration="9.06061340932" state="yr"/>
      <phase duration="30.1530318644" state="rG"/>
      <phase duration="9.06061340932" state="ry"/>
   </tlLogic>
   <tlLogic id="1271504834" offset="0" programID="0" type="static">
      <phase duration="24.115916283" state="G"/>
      <phase duration="7.7068098833" state="y"/>
   </tlLogic>
   <tlLogic id="1271504838" offset="0" programID="0" type="static">
      <phase duration="17.3278502903" state="GGrrr"/>
      <phase duration="4.07763555065" state="yyrrr"/>
      <phase duration="17.3278502903" state="rrGGr"/>
      <phase duration="4.07763555065" state="rryyr"/>
      <phase duration="17.3278502903" state="rrrrG"/>
      <phase duration="4.07763555065" state="rrrry"/>
   </tlLogic>
   <tlLogic id="1271504841" offset="0" programID="0" type="static">
      <phase duration="18.9252141076" state="G"/>
      <phase duration="9.89769368185" state="y"/>
   </tlLogic>
   <tlLogic id="1271504845" offset="0" programID="0" type="static">
      <phase duration="6.62435184831" state="G"/>
      <phase duration="5.96972079093" state="y"/>
   </tlLogic>
   <tlLogic id="1271504850" offset="0" programID="0" type="static">
      <phase duration="10.5704416954" state="Gr"/>
      <phase duration="5.14276095527" state="yr"/>
      <phase duration="10.5704416954" state="rG"/>
      <phase duration="5.14276095527" state="ry"/>
   </tlLogic>
   <tlLogic id="1271504851" offset="0" programID="0" type="static">
      <phase duration="4.24404150247" state="G"/>
      <phase duration="3.56654102397" state="y"/>
   </tlLogic>
   <tlLogic id="1271504861" offset="0" programID="0" type="static">
      <phase duration="26.575994925" state="G"/>
      <phase duration="9.87097907954" state="y"/>
   </tlLogic>
   <tlLogic id="1271504866" offset="0" programID="0" type="static">
      <phase duration="20.0331029618" state="G"/>
      <phase duration="7.99909495342" state="y"/>
   </tlLogic>
   <tlLogic id="1271504868" offset="0" programID="0" type="static">
      <phase duration="37.0585458318" state="Gr"/>
      <phase duration="5.5905527721" state="yr"/>
      <phase duration="37.0585458318" state="rG"/>
      <phase duration="5.5905527721" state="ry"/>
   </tlLogic>
   <tlLogic id="1271504871" offset="0" programID="0" type="static">
      <phase duration="7.52965051034" state="GGrr"/>
      <phase duration="2.94394246921" state="yyrr"/>
      <phase duration="7.52965051034" state="rrGG"/>
      <phase duration="2.94394246921" state="rryy"/>
   </tlLogic>
   <tlLogic id="1271504881" offset="0" programID="0" type="static">
      <phase duration="35.0401672512" state="GGrrr"/>
      <phase duration="4.81269372788" state="yyrrr"/>
      <phase duration="35.0401672512" state="rrGrr"/>
      <phase duration="4.81269372788" state="rryrr"/>
      <phase duration="35.0401672512" state="rrrGG"/>
      <phase duration="4.81269372788" state="rrryy"/>
   </tlLogic>
   <tlLogic id="1271504883" offset="0" programID="0" type="static">
      <phase duration="2.8181963053" state="GGrrr"/>
      <phase duration="1.8641249987" state="yyrrr"/>
      <phase duration="2.8181963053" state="rrGrr"/>
      <phase duration="1.8641249987" state="rryrr"/>
      <phase duration="2.8181963053" state="rrrGG"/>
      <phase duration="1.8641249987" state="rrryy"/>
   </tlLogic>
   <tlLogic id="1271504887" offset="0" programID="0" type="static">
      <phase duration="23.975311914" state="G"/>
      <phase duration="4.57936541765" state="y"/>
   </tlLogic>
   <tlLogic id="1271504893" offset="0" programID="0" type="static">
      <phase duration="13.2975271013" state="GGrrr"/>
      <phase duration="3.82608415492" state="yyrrr"/>
      <phase duration="13.2975271013" state="rrGrr"/>
      <phase duration="3.82608415492" state="rryrr"/>
      <phase duration="13.2975271013" state="rrrGG"/>
      <phase duration="3.82608415492" state="rrryy"/>
   </tlLogic>
   <tlLogic id="1271504895" offset="0" programID="0" type="static">
      <phase duration="33.2084522426" state="GGrrr"/>
      <phase duration="6.88437456471" state="yyrrr"/>
      <phase duration="33.2084522426" state="rrGrr"/>
      <phase duration="6.88437456471" state="rryrr"/>
      <phase duration="33.2084522426" state="rrrGG"/>
      <phase duration="6.88437456471" state="rrryy"/>
   </tlLogic>
   <tlLogic id="1271504898" offset="0" programID="0" type="static">
      <phase duration="8.0378932411" state="Gr"/>
      <phase duration="1.91142542078" state="yr"/>
      <phase duration="8.0378932411" state="rG"/>
      <phase duration="1.91142542078" state="ry"/>
   </tlLogic>
   <tlLogic id="1271504899" offset="0" programID="0" type="static">
      <phase duration="1.78886508674" state="G"/>
      <phase duration="2.68855047122" state="y"/>
   </tlLogic>
   <tlLogic id="1271504902" offset="0" programID="0" type="static">
      <phase duration="28.1690015947" state="Gr"/>
      <phase duration="2.30199527303" state="yr"/>
      <phase duration="28.1690015947" state="rG"/>
      <phase duration="2.30199527303" state="ry"/>
   </tlLogic>
   <tlLogic id="1271504905" offset="0" programID="0" type="static">
      <phase duration="8.53065598175" state="G"/>
      <phase duration="6.89766264192" state="y"/>
   </tlLogic>
   <tlLogic id="1271504907" offset="0" programID="0" type="static">
      <phase duration="8.44547635633" state="G"/>
      <phase duration="1.56343692229" state="y"/>
   </tlLogic>
   <tlLogic id="1271504908" offset="0" programID="0" type="static">
      <phase duration="7.27231302346" state="G"/>
      <phase duration="5.23228132013" state="y"/>
   </tlLogic>
   <tlLogic id="1271504910" offset="0" programID="0" type="static">
      <phase duration="38.5497992641" state="Gr"/>
      <phase duration="6.10007259673" state="yr"/>
      <phase duration="38.5497992641" state="rG"/>
      <phase duration="6.10007259673" state="ry"/>
   </tlLogic>
   <tlLogic id="1271504914" offset="0" programID="0" type="static">
      <phase duration="32.2613838262" state="G"/>
      <phase duration="5.12705892595" state="y"/>
   </tlLogic>
   <tlLogic id="1298727142" offset="0" programID="0" type="static">
      <phase duration="26.2579868045" state="Gr"/>
      <phase duration="8.40555238018" state="yr"/>
      <phase duration="26.2579868045" state="rG"/>
      <phase duration="8.40555238018" state="ry"/>
   </tlLogic>
   <tlLogic id="1299369677" offset="0" programID="0" type="static">
      <phase duration="38.3029391304" state="G"/>
      <phase duration="6.79587406717" state="y"/>
   </tlLogic>
   <tlLogic id="1299369684" offset="0" programID="0" type="static">
      <phase duration="18.2090815004" state="G"/>
      <phase duration="9.07827915482" state="y"/>
   </tlLogic>
   <tlLogic id="1299369694" offset="0" programID="0" type="static">
      <phase duration="32.7603889823" state="G"/>
      <phase duration="9.13949793137" state="y"/>
   </tlLogic>
   <tlLogic id="1299369699" offset="0" programID="0" type="static">
      <phase duration="15.5258126437" state="G"/>
      <phase duration="1.85602309169" state="y"/>
   </tlLogic>
   <tlLogic id="1299369701" offset="0" programID="0" type="static">
      <phase duration="37.8412678196" state="GGrrr"/>
      <phase duration="9.25222101752" state="yyrrr"/>
      <phase duration="37.8412678196" state="rrGrr"/>
      <phase duration="9.25222101752" state="rryrr"/>
      <phase duration="37.8412678196" state="rrrGG"/>
      <phase duration="9.25222101752" state="rrryy"/>
   </tlLogic>
   <tlLogic id="1312440659" offset="0" programID="0" type="static">
      <phase duration="5.26931148" state="GGrrr"/>
      <phase duration="6.98900243976" state="yyrrr"/>
      <phase duration="5.26931148" state="rrGrr"/>
      <phase duration="6.98900243976" state="rryrr"/>
      <phase duration="5.26931148" state="rrrGG"/>
      <phase duration="6.98900243976" state="rrryy"/>
   </tlLogic>
   <tlLogic id="1312812204" offset="0" programID="0" type="static">
      <phase duration="7.94855898308" state="G"/>
      <phase duration="5.47861710968" state="y"/>
   </tlLogic>
   <tlLogic id="1366801190" offset="0" programID="0" type="static"/>
   <tlLogic id="1366801194" offset="0" programID="0" type="static"/>
   <tlLogic id="1366801200" offset="0" programID="0" type="static">
      <phase duration="25.2182968644" state="Gr"/>
      <phase duration="6.81783524838" state="yr"/>
      <phase duration="25.2182968644" state="rG"/>
      <phase duration="6.81783524838" state="ry"/>
   </tlLogic>
   <tlLogic id="1366801217" offset="0" programID="0" type="static">
      <phase duration="4.96454686646" state="G"/>
      <phase duration="5.03666502054" state="y"/>
   </tlLogic>
   <tlLogic id="1366801262" offset="0" programID="0" type="static">
      <phase duration="36.5365778398" state="G"/>
      <phase duration="8.6885381763" state="y"/>
   </tlLogic>
   <tlLogic id="1366801267" offset="0" programID="0" type="static">
      <phase duration="35.9547451157" state="Grr"/>
      <phase duration="6.76954662812" state="yrr"/>
      <phase duration="35.9547451157" state="rGr"/>
      <phase duration="6.76954662812" state="ryr"/>
      <phase duration="35.9547451157" state="rrG"/>
      <phase duration="6.76954662812" state="rry"/>
   </tlLogic>
   <tlLogic id="1492679678" offset="0" programID="0" type="static">
      <phase duration="32.7963769001" state="Gr"/>
      <phase duration="5.33569388024" state="yr"/>
      <phase duration="32.7963769001" state="rG"/>
      <phase duration="5.33569388024" state="ry"/>
   </tlLogic>
   <tlLogic id="1492679687" offset="0" programID="0" type="static">
      <phase duration="3.15085949402" state="Gr"/>
      <phase duration="1.97554892249" state="yr"/>
      <phase duration="3.15085949402" state="rG"/>
      <phase duration="1.97554892249" state="ry"/>
   </tlLogic>
   <tlLogic id="1492679723" offset="0" programID="0" type="static">
      <phase duration="18.0964727199" state="GGrrr"/>
      <phase duration="2.56834954642" state="yyrrr"/>
      <phase duration="18.0964727199" state="rrGrr"/>
      <phase duration="2.56834954642" state="rryrr"/>
      <phase duration="18.0964727199" state="rrrGG"/>
      <phase duration="2.56834954642" state="rrryy"/>
   </tlLogic>
   <tlLogic id="1492679729" offset="0" programID="0" type="static">
      <phase duration="28.412750882" state="G"/>
      <phase duration="7.24281229932" state="y"/>
   </tlLogic>
   <tlLogic id="1492679731" offset="0" programID="0" type="static">
      <phase duration="35.1230551487" state="Gr"/>
      <phase duration="9.14404266507" state="yr"/>
      <phase duration="35.1230551487" state="rG"/>
      <phase duration="9.14404266507" state="ry"/>
   </tlLogic>
   <tlLogic id="1492679741" offset="0" programID="0" type="static">
      <phase duration="31.8452652684" state="G"/>
      <phase duration="4.64612907218" state="y"/>
   </tlLogic>
   <tlLogic id="1492679753" offset="0" programID="0" type="static">
      <phase duration="1.98683238626" state="G"/>
      <phase duration="4.9060103969" state="y"/>
   </tlLogic>
   <tlLogic id="1492729095" offset="0" programID="0" type="static">
      <phase duration="32.9102355712" state="G"/>
      <phase duration="7.68827664079" state="y"/>
   </tlLogic>
   <tlLogic id="1492729111" offset="0" programID="0" type="static">
      <phase duration="20.9191748372" state="G"/>
      <phase duration="3.30664502593" state="y"/>
   </tlLogic>
   <tlLogic id="1492729114" offset="0" programID="0" type="static">
      <phase duration="11.5615344512" state="Gr"/>
      <phase duration="2.04545583571" state="yr"/>
      <phase duration="11.5615344512" state="rG"/>
      <phase duration="2.04545583571" state="ry"/>
   </tlLogic>
   <tlLogic id="1492802065" offset="0" programID="0" type="static">
      <phase duration="5.73967722653" state="G"/>
      <phase duration="8.88838944379" state="y"/>
   </tlLogic>
   <tlLogic id="1492802066" offset="0" programID="0" type="static">
      <phase duration="7.62525384392" state="Gr"/>
      <phase duration="1.90544977413" state="yr"/>
      <phase duration="7.62525384392" state="rG"/>
      <phase duration="1.90544977413" state="ry"/>
   </tlLogic>