<?xml version="1.0" ?>
<tlLogics>
   <tlLogic id="1000099468" offset="0" programID="0" type="static">
      <phase duration="17.9384044548" state="G"/>
      <phase duration="7.89385800506" state="y"/>
   </tlLogic>
   <tlLogic id="1000099475" offset="0" programID="0" type="static">
      <phase duration="9.14515696772" state="GG"/>
      <phase duration="8.1345272866" state="yy"/>
   </tlLogic>
   <tlLogic id="1000099553" offset="0" programID="0" type="static">
      <phase duration="20.6104702564" state="Gr"/>
      <phase duration="6.88182963684" state="yr"/>
      <phase duration="20.6104702564" state="rG"/>
      <phase duration="6.88182963684" state="ry"/>
   </tlLogic>
   <tlLogic id="1000099576" offset="0" programID="0" type="static">
      <phase duration="27.5922740044" state="Grrrr"/>
      <phase duration="9.73375738403" state="yrrrr"/>
      <phase duration="27.5922740044" state="rGGrr"/>
      <phase duration="9.73375738403" state="ryyrr"/>
      <phase duration="27.5922740044" state="rrrGG"/>
      <phase duration="9.73375738403" state="rrryy"/>
   </tlLogic>
   <tlLogic id="1000099591" offset="0" programID="0" type="static">
      <phase duration="18.2844947512" state="GGrr"/>
      <phase duration="6.31478874436" state="yyrr"/>
      <phase duration="18.2844947512" state="rrGG"/>
      <phase duration="6.31478874436" state="rryy"/>
   </tlLogic>
   <tlLogic id="1000099607" offset="0" programID="0" type="static">
      <phase duration="27.0045313418" state="GGr"/>
      <phase duration="7.79080516228" state="yyr"/>
      <phase duration="27.0045313418" state="rrG"/>
      <phase duration="7.79080516228" state="rry"/>
   </tlLogic>
   <tlLogic id="1000099651" offset="0" programID="0" type="static">
      <phase duration="17.2001473457" state="GGrrrr"/>
      <phase duration="9.44053074923" state="yyrrrr"/>
      <phase duration="17.2001473457" state="rrGGrr"/>
      <phase duration="9.44053074923" state="rryyrr"/>
      <phase duration="17.2001473457" state="rrrrGG"/>
      <phase duration="9.44053074923" state="rrrryy"/>
   </tlLogic>
   <tlLogic id="1000099724" offset="0" programID="0" type="static">
      <phase duration="1.48235819941" state="Grrr"/>
      <phase duration="8.61078330393" state="yrrr"/>
      <phase duration="1.48235819941" state="rGGG"/>
      <phase duration="8.61078330393" state="ryyy"/>
   </tlLogic>
   <tlLogic id="1000099741" offset="0" programID="0" type="static">
      <phase duration="25.1682564655" state="GGrr"/>
      <phase duration="5.43302887237" state="yyrr"/>
      <phase duration="25.1682564655" state="rrGG"/>
      <phase duration="5.43302887237" state="rryy"/>
   </tlLogic>
   <tlLogic id="1000099788" offset="0" programID="0" type="static">
      <phase duration="24.2703231221" state="GGrr"/>
      <phase duration="5.75873579615" state="yyrr"/>
      <phase duration="24.2703231221" state="rrGG"/>
      <phase duration="5.75873579615" state="rryy"/>
   </tlLogic>
   <tlLogic id="1012321580" offset="0" programID="0" type="static">
      <phase duration="28.0444274229" state="Gr"/>
      <phase duration="6.44508091081" state="yr"/>
      <phase duration="28.0444274229" state="rG"/>
      <phase duration="6.44508091081" state="ry"/>
   </tlLogic>
   <tlLogic id="1012326820" offset="0" programID="0" type="static">
      <phase duration="33.9329325813" state="G"/>
      <phase duration="6.6034953241" state="y"/>
   </tlLogic>
   <tlLogic id="1028832536" offset="0" programID="0" type="static"/>
   <tlLogic id="1037290822" offset="0" programID="0" type="static">
      <phase duration="8.14555019301" state="GGrr"/>
      <phase duration="2.96793092113" state="yyrr"/>
      <phase duration="8.14555019301" state="rrGG"/>
      <phase duration="2.96793092113" state="rryy"/>
   </tlLogic>
   <tlLogic id="1037290863" offset="0" programID="0" type="static">
      <phase duration="23.3272191326" state="GGrr"/>
      <phase duration="9.96710692341" state="yyrr"/>
      <phase duration="23.3272191326" state="rrGG"/>
      <phase duration="9.96710692341" state="rryy"/>
   </tlLogic>
   <tlLogic id="1040964328" offset="0" programID="0" type="static">
      <phase duration="22.2895487012" state="Gr"/>
      <phase duration="5.26538970539" state="yr"/>
      <phase duration="22.2895487012" state="rG"/>
      <phase duration="5.26538970539" state="ry"/>
   </tlLogic>
   <tlLogic id="1045044715" offset="0" programID="0" type="static">
      <phase duration="16.0206338286" state="Gr"/>
      <phase duration="9.03256027287" state="yr"/>
      <phase duration="16.0206338286" state="rG"/>
      <phase duration="9.03256027287" state="ry"/>
   </tlLogic>
   <tlLogic id="1045044750" offset="0" programID="0" type="static">
      <phase duration="36.6116359999" state="Gr"/>
      <phase duration="8.47061689153" state="yr"/>
      <phase duration="36.6116359999" state="rG"/>
      <phase duration="8.47061689153" state="ry"/>
   </tlLogic>
   <tlLogic id="1045044796" offset="0" programID="0" type="static">
      <phase duration="15.9584116907" state="Gr"/>
      <phase duration="8.57951723874" state="yr"/>
      <phase duration="15.9584116907" state="rG"/>
      <phase duration="8.57951723874" state="ry"/>
   </tlLogic>
   <tlLogic id="1045044803" offset="0" programID="0" type="static">
      <phase duration="20.534099014" state="Gr"/>
      <phase duration="9.93284794938" state="yr"/>
      <phase duration="20.534099014" state="rG"/>
      <phase duration="9.93284794938" state="ry"/>
   </tlLogic>
   <tlLogic id="1045044863" offset="0" programID="0" type="static">
      <phase duration="14.5884400441" state="G"/>
      <phase duration="4.86256936725" state="y"/>
   </tlLogic>
   <tlLogic id="1062771951" offset="0" programID="0" type="static">
      <phase duration="17.6650946182" state="GGrr"/>
      <phase duration="4.05481912918" state="yyrr"/>
      <phase duration="17.6650946182" state="rrGG"/>
      <phase duration="4.05481912918" state="rryy"/>
   </tlLogic>
   <tlLogic id="1062771990" offset="0" programID="0" type="static">
      <phase duration="19.3853273591" state="G"/>
      <phase duration="9.1858437738" state="y"/>
   </tlLogic>
   <tlLogic id="1109589944" offset="0" programID="0" type="static">
      <phase duration="13.5112853638" state="GGGrrrrrr"/>
      <phase duration="3.65115106933" state="yyyrrrrrr"/>
      <phase duration="13.5112853638" state="rrrGGGrrr"/>
      <phase duration="3.65115106933" state="rrryyyrrr"/>
      <phase duration="13.5112853638" state="rrrrrrGGG"/>
      <phase duration="3.65115106933" state="rrrrrryyy"/>
   </tlLogic>
   <tlLogic id="1149210260" offset="0" programID="0" type="static">
      <phase duration="13.9371288904" state="Gr"/>
      <phase duration="4.9125327061" state="yr"/>
      <phase duration="13.9371288904" state="rG"/>
      <phase duration="4.9125327061" state="ry"/>
   </tlLogic>
   <tlLogic id="1150667539" offset="0" programID="0" type="static">
      <phase duration="10.5257320388" state="G"/>
      <phase duration="4.29978956819" state="y"/>
   </tlLogic>
   <tlLogic id="1150667540" offset="0" programID="0" type="static">
      <phase duration="22.5764216231" state="G"/>
      <phase duration="5.85110984041" state="y"/>
   </tlLogic>
   <tlLogic id="1150667558" offset="0" programID="0" type="static">
      <phase duration="9.21458195635" state="Gr"/>
      <phase duration="8.53015545813" state="yr"/>
      <phase duration="9.21458195635" state="rG"/>
      <phase duration="8.53015545813" state="ry"/>
   </tlLogic>
   <tlLogic id="1150667560" offset="0" programID="0" type="static">
      <phase duration="19.3652544776" state="G"/>
      <phase duration="3.63203779896" state="y"/>
   </tlLogic>
   <tlLogic id="1150667586" offset="0" programID="0" type="static">
      <phase duration="6.02862420303" state="G"/>
      <phase duration="9.18442922273" state="y"/>
   </tlLogic>
   <tlLogic id="1150667603" offset="0" programID="0" type="static">
      <phase duration="16.1345351737" state="Gr"/>
      <phase duration="8.08232110484" state="yr"/>
      <phase duration="16.1345351737" state="rG"/>
      <phase duration="8.08232110484" state="ry"/>
   </tlLogic>
   <tlLogic id="1150667604" offset="0" programID="0" type="static">
      <phase duration="15.0855405082" state="Gr"/>
      <phase duration="8.45208274209" state="yr"/>
      <phase duration="15.0855405082" state="rG"/>
      <phase duration="8.45208274209" state="ry"/>
   </tlLogic>
   <tlLogic id="1150667608" offset="0" programID="0" type="static">
      <phase duration="26.9523338659" state="Gr"/>
      <phase duration="8.83663367518" state="yr"/>
      <phase duration="26.9523338659" state="rG"/>
      <phase duration="8.83663367518" state="ry"/>
   </tlLogic>
   <tlLogic id="1150667618" offset="0" programID="0" type="static">
      <phase duration="37.1262388444" state="G"/>
      <phase duration="4.59934776719" state="y"/>
   </tlLogic>
   <tlLogic id="1150667622" offset="0" programID="0" type="static">
      <phase duration="26.0149659836" state="G"/>
      <phase duration="8.71170321675" state="y"/>
   </tlLogic>
   <tlLogic id="1156723834" offset="0" programID="0" type="static">
      <phase duration="26.069387038" state="G"/>
      <phase duration="4.31691078931" state="y"/>
   </tlLogic>
   <tlLogic id="1156723839" offset="0" programID="0" type="static">
      <phase duration="23.732735489" state="Gr"/>
      <phase duration="8.94607977194" state="yr"/>
      <phase duration="23.732735489" state="rG"/>
      <phase duration="8.94607977194" state="ry"/>
   </tlLogic>
   <tlLogic id="1201745377" offset="0" programID="0" type="static">
      <phase duration="23.4203220874" state="G"/>
      <phase duration="9.45539807803" state="y"/>
   </tlLogic>
   <tlLogic id="1220020505" offset="0" programID="0" type="static">
      <phase duration="29.8476931565" state="G"/>
      <phase duration="4.73181859007" state="y"/>
   </tlLogic>
   <tlLogic id="1220020607" offset="0" programID="0" type="static">
      <phase duration="24.7739406031" state="GGrr"/>
      <phase duration="4.25054510041" state="yyrr"/>
      <phase duration="24.7739406031" state="rrGG"/>
      <phase duration="4.25054510041" state="rryy"/>
   </tlLogic>
   <tlLogic id="1220020656" offset="0" programID="0" type="static">
      <phase duration="18.1472200837" state="GGrr"/>
      <phase duration="6.00966094791" state="yyrr"/>
      <phase duration="18.1472200837" state="rrGG"/>
      <phase duration="6.00966094791" state="rryy"/>
   </tlLogic>
   <tlLogic id="1220020673" offset="0" programID="0" type="static">
      <phase duration="23.9292826528" state="GGGrrrrrr"/>
      <phase duration="8.91527139093" state="yyyrrrrrr"/>
      <phase duration="23.9292826528" state="rrrGGGrrr"/>
      <phase duration="8.91527139093" state="rrryyyrrr"/>
      <phase duration="23.9292826528" state="rrrrrrGGG"/>
      <phase duration="8.91527139093" state="rrrrrryyy"/>
   </tlLogic>
   <tlLogic id="1220020679" offset="0" programID="0" type="static">
      <phase duration="27.3141671354" state="GGrr"/>
      <phase duration="5.21764841865" state="yyrr"/>
      <phase duration="27.3141671354" state="rrGG"/>
      <phase duration="5.21764841865" state="rryy"/>
   </tlLogic>
   <tlLogic id="1229522462" offset="0" programID="0" type="static">
      <phase duration="28.5112448407" state="G"/>
      <phase duration="8.62884944624" state="y"/>
   </tlLogic>
   <tlLogic id="1229522554" offset="0" programID="0" type="static">
      <phase duration="10.0086780939" state="G"/>
      <phase duration="2.71697419719" state="y"/>
   </tlLogic>
   <tlLogic id="1252285082" offset="0" programID="0" type="static">
      <phase duration="25.4146259262" state="G"/>
      <phase duration="4.55688097865" state="y"/>
   </tlLogic>
   <tlLogic id="1252285087" offset="0" programID="0" type="static"/>
   <tlLogic id="1252285093" offset="0" programID="0" type="static">
      <phase duration="24.8502067339" state="Gr"/>
      <phase duration="6.53376870179" state="yr"/>
      <phase duration="24.8502067339" state="rG"/>
      <phase duration="6.53376870179" state="ry"/>
   </tlLogic>
   <tlLogic id="1252285107" offset="0" programID="0" type="static">
      <phase duration="10.0330918387" state="G"/>
      <phase duration="3.37424357908" state="y"/>
   </tlLogic>
   <tlLogic id="1252285133" offset="0" programID="0" type="static">
      <phase duration="28.293747196" state="Gr"/>
      <phase duration="9.22652379593" state="yr"/>
      <phase duration="28.293747196" state="rG"/>
      <phase duration="9.22652379593" state="ry"/>
   </tlLogic>
   <tlLogic id="1252285138" offset="0" programID="0" type="static">
      <phase duration="27.53317008" state="G"/>
      <phase duration="3.03628703491" state="y"/>
   </tlLogic>
   <tlLogic id="1252285140" offset="0" programID="0" type="static">
      <phase duration="16.8624451057" state="Gr"/>
      <phase duration="1.96120827595" state="yr"/>
      <phase duration="16.8624451057" state="rG"/>
      <phase duration="1.96120827595" state="ry"/>
   </tlLogic>
   <tlLogic id="1264255381" offset="0" programID="0" type="static">
      <phase duration="6.06307577707" state="GGGrrrrrr"/>
      <phase duration="2.14727646316" state="yyyrrrrrr"/>
      <phase duration="6.06307577707" state="rrrGGGrrr"/>
      <phase duration="2.14727646316" state="rrryyyrrr"/>
      <phase duration="6.06307577707" state="rrrrrrGGG"/>
      <phase duration="2.14727646316" state="rrrrrryyy"/>
   </tlLogic>
   <tlLogic id="1271504743" offset="0" programID="0" type="static">
      <phase duration="22.1781418378" state="G"/>
      <phase duration="6.57426961858" state="y"/>
   </tlLogic>
   <tlLogic id="1271504750" offset="0" programID="0" type="static">
      <phase duration="16.3762219202" state="G"/>
      <phase duration="2.8089408869" state="y"/>
   </tlLogic>
   <tlLogic id="1271504755" offset="0" programID="0" type="static">
      <phase duration="24.0417382904" state="GGrrr"/>
      <phase duration="3.16981649038" state="yyrrr"/>
      <phase duration="24.0417382904" state="rrGrr"/>
      <phase duration="3.16981649038" state="rryrr"/>
      <phase duration="24.0417382904" state="rrrGG"/>
      <phase duration="3.16981649038" state="rrryy"/>
   </tlLogic>
   <tlLogic id="1271504756" offset="0" programID="0" type="static">
      <phase duration="34.1938131217" state="Gr"/>
      <phase duration="4.23792341766" state="yr"/>
      <phase duration="34.1938131217" state="rG"/>
      <phase duration="4.23792341766" state="ry"/>
   </tlLogic>
   <tlLogic id="1271504757" offset="0" programID="0" type="static">
      <phase duration="24.9678859682" state="GGrrr"/>
      <phase duration="7.5022990724" state="yyrrr"/>
      <phase duration="24.9678859682" state="rrGrr"/>
      <phase duration="7.5022990724" state="rryrr"/>
      <phase duration="24.9678859682" state="rrrGG"/>
      <phase duration="7.5022990724" state="rrryy"/>
   </tlLogic>
   <tlLogic id="1271504763" offset="0" programID="0" type="static">
      <phase duration="30.6901234603" state="G"/>
      <phase duration="7.47595545462" state="y"/>
   </tlLogic>
   <tlLogic id="1271504766" offset="0" programID="0" type="static">
      <phase duration="10.0985366074" state="Gr"/>
      <phase duration="4.57551287772" state="yr"/>
      <phase duration="10.0985366074" state="rG"/>
      <phase duration="4.57551287772" state="ry"/>
   </tlLogic>
   <tlLogic id="1271504774" offset="0" programID="0" type="static">
      <phase duration="18.5230394862" state="G"/>
      <phase duration="7.10945050022" state="y"/>
   </tlLogic>
   <tlLogic id="1271504783" offset="0" programID="0" type="static">
      <phase duration="27.5471066545" state="Gr"/>
      <phase duration="9.81765336394" state="yr"/>
      <phase duration="27.5471066545" state="rG"/>
      <phase duration="9.81765336394" state="ry"/>
   </tlLogic>
   <tlLogic id="1271504788" offset="0" programID="0" type="static">
      <phase duration="18.6768494997" state="GGrrr"/>
      <phase duration="5.8024705845" state="yyrrr"/>
      <phase duration="18.6768494997" state="rrGGG"/>
      <phase duration="5.8024705845" state="rryyy"/>
   </tlLogic>
   <tlLogic id="1271504795" offset="0" programID="0" type="static">
      <phase duration="18.5691188542" state="G"/>
      <phase duration="6.51817831005" state="y"/>
   </tlLogic>
   <tlLogic id="1271504797" offset="0" programID="0" type="static">
      <phase duration="36.3685477742" state="Gr"/>
      <phase duration="7.03357884994" state="yr"/>
      <phase duration="36.3685477742" state="rG"/>
      <phase duration="7.03357884994" state="ry"/>
   </tlLogic>
   <tlLogic id="1271504815" offset="0" programID="0" type="static">
      <phase duration="21.3058216328" state="Gr"/>
      <phase duration="6.11568857509" state="yr"/>
      <phase duration="21.3058216328" state="rG"/>
      <phase duration="6.11568857509" state="ry"/>
   </tlLogic>
   <tlLogic id="1271504819" offset="0" programID="0" type="static">
      <phase duration="1.81756258678" state="Gr"/>
      <phase duration="9.53565296382" state="yr"/>
      <phase duration="1.81756258678" state="rG"/>
      <phase duration="9.53565296382" state="ry"/>
   </tlLogic>
   <tlLogic id="1271504823" offset="0" programID="0" type="static">
      <phase duration="25.3133359247" state="G"/>
      <phase duration="9.12171274331" state="y"/>
   </tlLogic>
   <tlLogic id="1271504828" offset="0" programID="0" type="static">
      <phase duration="20.8678993878" state="GGrrr"/>
      <phase duration="7.38633991643" state="yyrrr"/>
      <phase duration="20.8678993878" state="rrGrr"/>
      <phase duration="7.38633991643" state="rryrr"/>
      <phase duration="20.8678993878" state="rrrGG"/>
      <phase duration="7.38633991643" state="rrryy"/>
   </tlLogic>
   <tlLogic id="1271504829" offset="0" programID="0" type="static">
      <phase duration="17.5952346618" state="Gr"/>
      <phase duration="5.38021327506" state="yr"/>
      <phase duration="17.5952346618" state="rG"/>
      <phase duration="5.38021327506" state="ry"/>
   </tlLogic>
   <tlLogic id="1271504830" offset="0" programID="0" type="static">
      <phase duration="23.2894402739" state="GGrrr"/>
      <phase duration="9.76545759228" state="yyrrr"/>
      <phase duration="23.2894402739" state="rrGrr"/>
      <phase duration="9.76545759228" state="rryrr"/>
      <phase duration="23.2894402739" state="rrrGG"/>
      <phase duration="9.76545759228" state="rrryy"/>
   </tlLogic>
   <tlLogic id="1271504832" offset="0" programID="0" type="static">
      <phase duration="19.4470718672" state="Gr"/>
      <phase duration="7.21799405434" state="yr"/>
      <phase duration="19.4470718672" state="rG"/>
      <phase duration="7.21799405434" state="ry"/>
   </tlLogic>
   <tlLogic id="1271504834" offset="0" programID="0" type="static">
      <phase duration="18.2357685466" state="G"/>
      <phase duration="8.69234266296" state="y"/>
   </tlLogic>
   <tlLogic id="1271504836" offset="0" programID="0" type="static">
      <phase duration="23.5380571687" state="G"/>
      <phase duration="7.89131216899" state="y"/>
   </tlLogic>
   <tlLogic id="1271504838" offset="0" programID="0" type="static">
      <phase duration="17.5981303777" state="GGrrr"/>
      <phase duration="9.60375177601" state="yyrrr"/>
      <phase duration="17.5981303777" state="rrGGr"/>
      <phase duration="9.60375177601" state="rryyr"/>
      <phase duration="17.5981303777" state="rrrrG"/>
      <phase duration="9.60375177601" state="rrrry"/>
   </tlLogic>
   <tlLogic id="1271504842" offset="0" programID="0" type="static">
      <phase duration="31.3687909712" state="G"/>
      <phase duration="7.98722486396" state="y"/>
   </tlLogic>
   <tlLogic id="1271504843" offset="0" programID="0" type="static">
      <phase duration="18.6725064257" state="Gr"/>
      <phase duration="3.23530628291" state="yr"/>
      <phase duration="18.6725064257" state="rG"/>
      <phase duration="3.23530628291" state="ry"/>
   </tlLogic>
   <tlLogic id="1271504850" offset="0" programID="0" type="static">
      <phase duration="32.5701140162" state="Gr"/>
      <phase duration="9.69603138457" state="yr"/>
      <phase duration="32.5701140162" state="rG"/>
      <phase duration="9.69603138457" state="ry"/>
   </tlLogic>
   <tlLogic id="1271504855" offset="0" programID="0" type="static">
      <phase duration="18.2176664607" state="Gr"/>
      <phase duration="5.73300703955" state="yr"/>
      <phase duration="18.2176664607" state="rG"/>
      <phase duration="5.73300703955" state="ry"/>
   </tlLogic>
   <tlLogic id="1271504858" offset="0" programID="0" type="static">
      <phase duration="32.668016981" state="G"/>
      <phase duration="6.65220774982" state="y"/>
   </tlLogic>
   <tlLogic id="1271504861" offset="0" programID="0" type="static">
      <phase duration="28.2340173038" state="G"/>
      <phase duration="1.71467154913" state="y"/>
   </tlLogic>
   <tlLogic id="1271504863" offset="0" programID="0" type="static">
      <phase duration="25.9506096669" state="G"/>
      <phase duration="9.13258988353" state="y"/>
   </tlLogic>
   <tlLogic id="1271504864" offset="0" programID="0" type="static">
      <phase duration="30.5174175044" state="G"/>
      <phase duration="3.18265766356" state="y"/>
   </tlLogic>
   <tlLogic id="1271504866" offset="0" programID="0" type="static">
      <phase duration="32.0859933655" state="G"/>
      <phase duration="5.18306347909" state="y"/>
   </tlLogic>
   <tlLogic id="1271504867" offset="0" programID="0" type="static">
      <phase duration="23.8970268059" state="G"/>
      <phase duration="5.25511390942" state="y"/>
   </tlLogic>
   <tlLogic id="1271504871" offset="0" programID="0" type="static">
      <phase duration="8.3756991522" state="GGrr"/>
      <phase duration="5.22145868287" state="yyrr"/>
      <phase duration="8.3756991522" state="rrGG"/>
      <phase duration="5.22145868287" state="rryy"/>
   </tlLogic>
   <tlLogic id="1271504873" offset="0" programID="0" type="static">
      <phase duration="21.8468883111" state="GGrrr"/>
      <phase duration="5.44073618328" state="yyrrr"/>
      <phase duration="21.8468883111" state="rrGrr"/>
      <phase duration="5.44073618328" state="rryrr"/>
      <phase duration="21.8468883111" state="rrrGG"/>
      <phase duration="5.44073618328" state="rrryy"/>
   </tlLogic>
   <tlLogic id="1271504887" offset="0" programID="0" type="static">
      <phase duration="13.6859466318" state="G"/>
      <phase duration="2.73300842286" state="y"/>
   </tlLogic>
   <tlLogic id="1271504889" offset="0" programID="0" type="static">
      <phase duration="28.7045018004" state="Gr"/>
      <phase duration="6.6285690746" state="yr"/>
      <phase duration="28.7045018004" state="rG"/>
      <phase duration="6.6285690746" state="ry"/>
   </tlLogic>
   <tlLogic id="1271504891" offset="0" programID="0" type="static">
      <phase duration="24.5844817165" state="G"/>
      <phase duration="7.61530796229" state="y"/>
   </tlLogic>
   <tlLogic id="1271504898" offset="0" programID="0" type="static">
      <phase duration="13.8921466203" state="Gr"/>
      <phase duration="3.87584664236" state="yr"/>
      <phase duration="13.8921466203" state="rG"/>
      <phase duration="3.87584664236" state="ry"/>
   </tlLogic>
   <tlLogic id="1271504899" offset="0" programID="0" type="static">
      <phase duration="21.4387745298" state="G"/>
      <phase duration="5.58973095368" state="y"/>
   </tlLogic>
   <tlLogic id="1271504902" offset="0" programID="0" type="static">
      <phase duration="33.4484980887" state="Gr"/>
      <phase duration="6.86877073472" state="yr"/>
      <phase duration="33.4484980887" state="rG"/>
      <phase duration="6.86877073472" state="ry"/>
   </tlLogic>
   <tlLogic id="1271504904" offset="0" programID="0" type="static">
      <phase duration="21.1502603791" state="Grr"/>
      <phase duration="6.11535655571" state="yrr"/>
      <phase duration="21.1502603791" state="rGG"/>
      <phase duration="6.11535655571" state="ryy"/>
   </tlLogic>
   <tlLogic id="1271504905" offset="0" programID="0" type="static">
      <phase duration="14.3688823204" state="G"/>
      <phase duration="5.60332692215" state="y"/>
   </tlLogic>
   <tlLogic id="1271504908" offset="0" programID="0" type="static">
      <phase duration="24.8975041552" state="G"/>
      <phase duration="8.65252631021" state="y"/>
   </tlLogic>
   <tlLogic id="1271504913" offset="0" programID="0" type="static">
      <phase duration="11.4881484868" state="GGrrr"/>
      <phase duration="9.60607794239" state="yyrrr"/>
      <phase duration="11.4881484868" state="rrGGr"/>
      <phase duration="9.60607794239" state="rryyr"/>
      <phase duration="11.4881484868" state="rrrrG"/>
      <phase duration="9.60607794239" state="rrrry"/>
   </tlLogic>
   <tlLogic id="1271504918" offset="0" programID="0" type="static">
      <phase duration="9.85265264672" state="G"/>
      <phase duration="6.12207612302" state="y"/>
   </tlLogic>
   <tlLogic id="1298727142" offset="0" programID="0" type="static">
      <phase duration="23.6449368552" state="Gr"/>
      <phase duration="9.33016734152" state="yr"/>
      <phase duration="23.6449368552" state="rG"/>
      <phase duration="9.33016734152" state="ry"/>
   </tlLogic>
   <tlLogic id="1299369678" offset="0" programID="0" type="static">
      <phase duration="14.4387662627" state="G"/>
      <phase duration="6.99725575204" state="y"/>
   </tlLogic>
   <tlLogic id="1299369684" offset="0" programID="0" type="static">
      <phase duration="38.1215559593" state="G"/>
      <phase duration="9.95428738609" state="y"/>
   </tlLogic>
   <tlLogic id="1299369689" offset="0" programID="0" type="static">
      <phase duration="19.7299920117" state="GGrrr"/>
      <phase duration="7.93991506271" state="yyrrr"/>
      <phase duration="19.7299920117" state="rrGrr"/>
      <phase duration="7.93991506271" state="rryrr"/>
      <phase duration="19.7299920117" state="rrrGG"/>
      <phase duration="7.93991506271" state="rrryy"/>
   </tlLogic>
   <tlLogic id="1299369699" offset="0" programID="0" type="static">
      <phase duration="26.2367418914" state="G"/>
      <phase duration="5.15267234984" state="y"/>
   </tlLogic>
   <tlLogic id="1312440651" offset="0" programID="0" type="static">
      <phase duration="26.4499540936" state="G"/>
      <phase duration="4.57663611413" state="y"/>
   </tlLogic>
   <tlLogic id="1312440715" offset="0" programID="0" type="static">
      <phase duration="25.7619636138" state="Gr"/>
      <phase duration="7.75108457965" state="yr"/>
      <phase duration="25.7619636138" state="rG"/>
      <phase duration="7.75108457965" state="ry"/>
   </tlLogic>
   <tlLogic id="1312812204" offset="0" programID="0" type="static">
      <phase duration="26.5353202409" state="G"/>
      <phase duration="7.15920698445" state="y"/>
   </tlLogic>
   <tlLogic id="1353566368" offset="0" programID="0" type="static">
      <phase duration="28.7866423423" state="G"/>
      <phase duration="9.60839628762" state="y"/>
   </tlLogic>
   <tlLogic id="1353566371" offset="0" programID="0" type="static">
      <phase duration="17.7106962497" state="G"/>
      <phase duration="4.20807262583" state="y"/>
   </tlLogic>
   <tlLogic id="1360932319" offset="0" programID="0" type="static"/>
   <tlLogic id="1366801174" offset="0" programID="0" type="static">
      <phase duration="20.4364926266" state="G"/>
      <phase duration="4.693046075" state="y"/>
   </tlLogic>
   <tlLogic id="1366801185" offset="0" programID="0" type="static">
      <phase duration="35.9114560247" state="G"/>
      <phase duration="5.14840740533" state="y"/>
   </tlLogic>
   <tlLogic id="1366801200" offset="0" programID="0" type="static">
      <phase duration="29.8574952396" state="Gr"/>
      <phase duration="2.37081498269" state="yr"/>
      <phase duration="29.8574952396" state="rG"/>
      <phase duration="2.37081498269" state="ry"/>
   </tlLogic>
   <tlLogic id="1366801217" offset="0" programID="0" type="static">
      <phase duration="12.2928028895" state="G"/>
      <phase duration="8.26190095521" state="y"/>
   </tlLogic>
   <tlLogic id="1366801267" offset="0" programID="0" type="static">
      <phase duration="22.8523701627" state="Grr"/>
      <phase duration="9.25101451496" state="yrr"/>
      <phase duration="22.8523701627" state="rGr"/>
      <phase duration="9.25101451496" state="ryr"/>
      <phase duration="22.8523701627" state="rrG"/>
      <phase duration="9.25101451496" state="rry"/>
   </tlLogic>
   <tlLogic id="1492679675" offset="0" programID="0" type="static">
      <phase duration="33.3023271554" state="Gr"/>
      <phase duration="3.34782943217" state="yr"/>
      <phase duration="33.3023271554" state="rG"/>
      <phase duration="3.34782943217" state="ry"/>
   </tlLogic>
   <tlLogic id="1492679678" offset="0" programID="0" type="static">
      <phase duration="15.0365068332" state="Gr"/>
      <phase duration="4.97885651052" state="yr"/>
      <phase duration="15.0365068332" state="rG"/>
      <phase duration="4.97885651052" state="ry"/>
   </tlLogic>
   <tlLogic id="1492679681" offset="0" programID="0" type="static">
      <phase duration="22.2508456316" state="G"/>
      <phase duration="6.50811933" state="y"/>
   </tlLogic>
   <tlLogic id="1492679687" offset="0" programID="0" type="static">
      <phase duration="19.6830208047" state="Gr"/>
      <phase duration="4.51137895811" state="yr"/>
      <phase duration="19.6830208047" state="rG"/>
      <phase duration="4.51137895811" state="ry"/>
   </tlLogic>
   <tlLogic id="1492679714" offset="0" programID="0" type="static">
      <phase duration="14.3358962766" state="Gr"/>
      <phase duration="4.79544716077" state="yr"/>
      <phase duration="14.3358962766" state="rG"/>
      <phase duration="4.79544716077" state="ry"/>
   </tlLogic>