<?xml version="1.0" ?>
<tlLogics>
   <tlLogic id="1000099468" offset="0" programID="0" type="static">
      <phase duration="19.033935065" state="G"/>
      <phase duration="7.96114618575" state="y"/>
   </tlLogic>
   <tlLogic id="1000099544" offset="0" programID="0" type="static">
      <phase duration="13.8035114152" state="GGrrr"/>
      <phase duration="3.44895673343" state="yyrrr"/>
      <phase duration="13.8035114152" state="rrGGr"/>
      <phase duration="3.44895673343" state="rryyr"/>
      <phase duration="13.8035114152" state="rrrrG"/>
      <phase duration="3.44895673343" state="rrrry"/>
   </tlLogic>
   <tlLogic id="1000099551" offset="0" programID="0" type="static">
      <phase duration="38.9398712355" state="G"/>
      <phase duration="7.90935814029" state="y"/>
   </tlLogic>
   <tlLogic id="1000099553" offset="0" programID="0" type="static">
      <phase duration="20.747458428" state="Gr"/>
      <phase duration="2.98932420703" state="yr"/>
      <phase duration="20.747458428" state="rG"/>
      <phase duration="2.98932420703" state="ry"/>
   </tlLogic>
   <tlLogic id="1000099650" offset="0" programID="0" type="static">
      <phase duration="24.1451259801" state="G"/>
      <phase duration="9.97955700419" state="y"/>
   </tlLogic>
   <tlLogic id="1000099741" offset="0" programID="0" type="static">
      <phase duration="21.6278225124" state="GGrr"/>
      <phase duration="3.70067748293" state="yyrr"/>
      <phase duration="21.6278225124" state="rrGG"/>
      <phase duration="3.70067748293" state="rryy"/>
   </tlLogic>
   <tlLogic id="1012321573" offset="0" programID="0" type="static">
      <phase duration="16.7413660755" state="Gr"/>
      <phase duration="8.11808510842" state="yr"/>
      <phase duration="16.7413660755" state="rG"/>
      <phase duration="8.11808510842" state="ry"/>
   </tlLogic>
   <tlLogic id="1012321580" offset="0" programID="0" type="static">
      <phase duration="37.0184884544" state="Gr"/>
      <phase duration="6.04978532468" state="yr"/>
      <phase duration="37.0184884544" state="rG"/>
      <phase duration="6.04978532468" state="ry"/>
   </tlLogic>
   <tlLogic id="1012326820" offset="0" programID="0" type="static">
      <phase duration="5.5885432469" state="G"/>
      <phase duration="7.54155672386" state="y"/>
   </tlLogic>
   <tlLogic id="1028832186" offset="0" programID="0" type="static"/>
   <tlLogic id="1028832536" offset="0" programID="0" type="static"/>
   <tlLogic id="1037290822" offset="0" programID="0" type="static">
      <phase duration="9.09699898157" state="GGrr"/>
      <phase duration="5.65020465453" state="yyrr"/>
      <phase duration="9.09699898157" state="rrGG"/>
      <phase duration="5.65020465453" state="rryy"/>
   </tlLogic>
   <tlLogic id="1037290863" offset="0" programID="0" type="static">
      <phase duration="28.2219770319" state="GGrr"/>
      <phase duration="7.74381583413" state="yyrr"/>
      <phase duration="28.2219770319" state="rrGG"/>
      <phase duration="7.74381583413" state="rryy"/>
   </tlLogic>
   <tlLogic id="1037290915" offset="0" programID="0" type="static">
      <phase duration="27.3650531514" state="GGrrr"/>
      <phase duration="5.71784549702" state="yyrrr"/>
      <phase duration="27.3650531514" state="rrGGG"/>
      <phase duration="5.71784549702" state="rryyy"/>
   </tlLogic>
   <tlLogic id="1040964333" offset="0" programID="0" type="static">
      <phase duration="26.4126286772" state="Gr"/>
      <phase duration="3.9975723382" state="yr"/>
      <phase duration="26.4126286772" state="rG"/>
      <phase duration="3.9975723382" state="ry"/>
   </tlLogic>
   <tlLogic id="1045044715" offset="0" programID="0" type="static">
      <phase duration="19.0547502588" state="Gr"/>
      <phase duration="6.75612435129" state="yr"/>
      <phase duration="19.0547502588" state="rG"/>
      <phase duration="6.75612435129" state="ry"/>
   </tlLogic>
   <tlLogic id="1045044750" offset="0" programID="0" type="static">
      <phase duration="35.37134433" state="Gr"/>
      <phase duration="5.19283780029" state="yr"/>
      <phase duration="35.37134433" state="rG"/>
      <phase duration="5.19283780029" state="ry"/>
   </tlLogic>
   <tlLogic id="1045044803" offset="0" programID="0" type="static">
      <phase duration="26.5757599683" state="Gr"/>
      <phase duration="9.56459480721" state="yr"/>
      <phase duration="26.5757599683" state="rG"/>
      <phase duration="9.56459480721" state="ry"/>
   </tlLogic>
   <tlLogic id="1045044863" offset="0" programID="0" type="static">
      <phase duration="19.3749721234" state="G"/>
      <phase duration="4.12311196938" state="y"/>
   </tlLogic>
   <tlLogic id="1062771951" offset="0" programID="0" type="static">
      <phase duration="19.8238956071" state="GGrr"/>
      <phase duration="8.95618423655" state="yyrr"/>
      <phase duration="19.8238956071" state="rrGG"/>
      <phase duration="8.95618423655" state="rryy"/>
   </tlLogic>
   <tlLogic id="1109589987" offset="0" programID="0" type="static">
      <phase duration="22.9671305679" state="GGrr"/>
      <phase duration="5.54478175391" state="yyrr"/>
      <phase duration="22.9671305679" state="rrGG"/>
      <phase duration="5.54478175391" state="rryy"/>
   </tlLogic>
   <tlLogic id="1125127500" offset="0" programID="0" type="static">
      <phase duration="26.8706902642" state="GG"/>
      <phase duration="8.95820237382" state="yy"/>
   </tlLogic>
   <tlLogic id="1149210260" offset="0" programID="0" type="static">
      <phase duration="25.5500388564" state="Gr"/>
      <phase duration="3.59736448309" state="yr"/>
      <phase duration="25.5500388564" state="rG"/>
      <phase duration="3.59736448309" state="ry"/>
   </tlLogic>
   <tlLogic id="1150667552" offset="0" programID="0" type="static">
      <phase duration="37.6962146255" state="Gr"/>
      <phase duration="8.43843710287" state="yr"/>
      <phase duration="37.6962146255" state="rG"/>
      <phase duration="8.43843710287" state="ry"/>
   </tlLogic>
   <tlLogic id="1150667568" offset="0" programID="0" type="static"/>
   <tlLogic id="1150667586" offset="0" programID="0" type="static">
      <phase duration="25.6409973139" state="G"/>
      <phase duration="5.34351007226" state="y"/>
   </tlLogic>
   <tlLogic id="1150667604" offset="0" programID="0" type="static">
      <phase duration="18.4609201307" state="Gr"/>
      <phase duration="9.60350191197" state="yr"/>
      <phase duration="18.4609201307" state="rG"/>
      <phase duration="9.60350191197" state="ry"/>
   </tlLogic>
   <tlLogic id="1156723834" offset="0" programID="0" type="static">
      <phase duration="32.5685052487" state="G"/>
      <phase duration="8.6176442417" state="y"/>
   </tlLogic>
   <tlLogic id="1200892937" offset="0" programID="0" type="static">
      <phase duration="31.2122118995" state="G"/>
      <phase duration="3.72741151012" state="y"/>
   </tlLogic>
   <tlLogic id="1201745377" offset="0" programID="0" type="static">
      <phase duration="5.59521894106" state="G"/>
      <phase duration="4.1591463253" state="y"/>
   </tlLogic>
   <tlLogic id="1201745399" offset="0" programID="0" type="static"/>
   <tlLogic id="1211136497" offset="0" programID="0" type="static">
      <phase duration="12.6591932736" state="GGrr"/>
      <phase duration="3.50296147255" state="yyrr"/>
      <phase duration="12.6591932736" state="rrGG"/>
      <phase duration="3.50296147255" state="rryy"/>
   </tlLogic>
   <tlLogic id="1220020505" offset="0" programID="0" type="static">
      <phase duration="26.8125874128" state="G"/>
      <phase duration="9.57009250432" state="y"/>
   </tlLogic>
   <tlLogic id="1220020592" offset="0" programID="0" type="static">
      <phase duration="10.1367318055" state="Gr"/>
      <phase duration="6.33929644403" state="yr"/>
      <phase duration="10.1367318055" state="rG"/>
      <phase duration="6.33929644403" state="ry"/>
   </tlLogic>
   <tlLogic id="1220020630" offset="0" programID="0" type="static">
      <phase duration="19.0037492646" state="Gr"/>
      <phase duration="6.71172074847" state="yr"/>
      <phase duration="19.0037492646" state="rG"/>
      <phase duration="6.71172074847" state="ry"/>
   </tlLogic>
   <tlLogic id="1220020673" offset="0" programID="0" type="static">
      <phase duration="22.1558388955" state="GGGrrrrrr"/>
      <phase duration="7.37390311842" state="yyyrrrrrr"/>
      <phase duration="22.1558388955" state="rrrGGGrrr"/>
      <phase duration="7.37390311842" state="rrryyyrrr"/>
      <phase duration="22.1558388955" state="rrrrrrGGG"/>
      <phase duration="7.37390311842" state="rrrrrryyy"/>
   </tlLogic>
   <tlLogic id="1229522462" offset="0" programID="0" type="static">
      <phase duration="12.9837311667" state="G"/>
      <phase duration="7.40384436808" state="y"/>
   </tlLogic>
   <tlLogic id="1229522509" offset="0" programID="0" type="static">
      <phase duration="17.5094758546" state="G"/>
      <phase duration="7.82873035988" state="y"/>
   </tlLogic>
   <tlLogic id="1252285082" offset="0" programID="0" type="static">
      <phase duration="24.4832876017" state="G"/>
      <phase duration="3.82185088737" state="y"/>
   </tlLogic>
   <tlLogic id="1252285093" offset="0" programID="0" type="static">
      <phase duration="19.2790581871" state="Gr"/>
      <phase duration="4.16443133896" state="yr"/>
      <phase duration="19.2790581871" state="rG"/>
      <phase duration="4.16443133896" state="ry"/>
   </tlLogic>
   <tlLogic id="1252285105" offset="0" programID="0" type="static">
      <phase duration="18.5885671684" state="G"/>
      <phase duration="8.52432245446" state="y"/>
   </tlLogic>
   <tlLogic id="1252285107" offset="0" programID="0" type="static">
      <phase duration="24.8975998359" state="G"/>
      <phase duration="2.57838010359" state="y"/>
   </tlLogic>
   <tlLogic id="1252285133" offset="0" programID="0" type="static">
      <phase duration="31.7878327406" state="Gr"/>
      <phase duration="6.57989416844" state="yr"/>
      <phase duration="31.7878327406" state="rG"/>
      <phase duration="6.57989416844" state="ry"/>
   </tlLogic>
   <tlLogic id="1252285137" offset="0" programID="0" type="static">
      <phase duration="22.6238528095" state="Gr"/>
      <phase duration="8.98306970378" state="yr"/>
      <phase duration="22.6238528095" state="rG"/>
      <phase duration="8.98306970378" state="ry"/>
   </tlLogic>
   <tlLogic id="1252285138" offset="0" programID="0" type="static">
      <phase duration="27.4569314174" state="G"/>
      <phase duration="4.2326151798" state="y"/>
   </tlLogic>
   <tlLogic id="1271504743" offset="0" programID="0" type="static">
      <phase duration="32.6443084422" state="G"/>
      <phase duration="5.93994143077" state="y"/>
   </tlLogic>
   <tlLogic id="1271504747" offset="0" programID="0" type="static">
      <phase duration="22.8690144071" state="Gr"/>
      <phase duration="6.32728587079" state="yr"/>
      <phase duration="22.8690144071" state="rG"/>
      <phase duration="6.32728587079" state="ry"/>
   </tlLogic>
   <tlLogic id="1271504750" offset="0" programID="0" type="static">
      <phase duration="26.6848070232" state="G"/>
      <phase duration="5.37875713948" state="y"/>
   </tlLogic>
   <tlLogic id="1271504755" offset="0" programID="0" type="static">
      <phase duration="30.7818120809" state="GGrrr"/>
      <phase duration="9.34468562923" state="yyrrr"/>
      <phase duration="30.7818120809" state="rrGrr"/>
      <phase duration="9.34468562923" state="rryrr"/>
      <phase duration="30.7818120809" state="rrrGG"/>
      <phase duration="9.34468562923" state="rrryy"/>
   </tlLogic>
   <tlLogic id="1271504757" offset="0" programID="0" type="static">
      <phase duration="32.1587563577" state="GGrrr"/>
      <phase duration="4.27576628799" state="yyrrr"/>
      <phase duration="32.1587563577" state="rrGrr"/>
      <phase duration="4.27576628799" state="rryrr"/>
      <phase duration="32.1587563577" state="rrrGG"/>
      <phase duration="4.27576628799" state="rrryy"/>
   </tlLogic>
   <tlLogic id="1271504758" offset="0" programID="0" type="static">
      <phase duration="27.8865757701" state="G"/>
      <phase duration="4.22143026136" state="y"/>
   </tlLogic>
   <tlLogic id="1271504767" offset="0" programID="0" type="static">
      <phase duration="20.1197088701" state="G"/>
      <phase duration="8.49047112618" state="y"/>
   </tlLogic>
   <tlLogic id="1271504768" offset="0" programID="0" type="static">
      <phase duration="25.4679906263" state="Gr"/>
      <phase duration="8.17660607385" state="yr"/>
      <phase duration="25.4679906263" state="rG"/>
      <phase duration="8.17660607385" state="ry"/>
   </tlLogic>
   <tlLogic id="1271504770" offset="0" programID="0" type="static">
      <phase duration="14.0748418189" state="Gr"/>
      <phase duration="7.78953323364" state="yr"/>
      <phase duration="14.0748418189" state="rG"/>
      <phase duration="7.78953323364" state="ry"/>
   </tlLogic>
   <tlLogic id="1271504773" offset="0" programID="0" type="static">
      <phase duration="32.8381010639" state="GGrrr"/>
      <phase duration="3.96858319229" state="yyrrr"/>
      <phase duration="32.8381010639" state="rrGrr"/>
      <phase duration="3.96858319229" state="rryrr"/>
      <phase duration="32.8381010639" state="rrrGG"/>
      <phase duration="3.96858319229" state="rrryy"/>
   </tlLogic>
   <tlLogic id="1271504774" offset="0" programID="0" type="static">
      <phase duration="8.36110948795" state="G"/>
      <phase duration="5.63931438711" state="y"/>
   </tlLogic>
   <tlLogic id="1271504778" offset="0" programID="0" type="static">
      <phase duration="26.9084427318" state="G"/>
      <phase duration="9.34055231714" state="y"/>
   </tlLogic>
   <tlLogic id="1271504781" offset="0" programID="0" type="static">
      <phase duration="29.7861642828" state="GGrrr"/>
      <phase duration="4.59531366708" state="yyrrr"/>
      <phase duration="29.7861642828" state="rrGrr"/>
      <phase duration="4.59531366708" state="rryrr"/>
      <phase duration="29.7861642828" state="rrrGG"/>
      <phase duration="4.59531366708" state="rrryy"/>
   </tlLogic>
   <tlLogic id="1271504788" offset="0" programID="0" type="static">
      <phase duration="16.9439933695" state="GGrrr"/>
      <phase duration="5.59347786461" state="yyrrr"/>
      <phase duration="16.9439933695" state="rrGGG"/>
      <phase duration="5.59347786461" state="rryyy"/>
   </tlLogic>
   <tlLogic id="1271504797" offset="0" programID="0" type="static">
      <phase duration="29.0523462612" state="Gr"/>
      <phase duration="6.84492903614" state="yr"/>
      <phase duration="29.0523462612" state="rG"/>
      <phase duration="6.84492903614" state="ry"/>
   </tlLogic>
   <tlLogic id="1271504801" offset="0" programID="0" type="static">
      <phase duration="19.9068487847" state="G"/>
      <phase duration="8.07431012007" state="y"/>
   </tlLogic>
   <tlLogic id="1271504812" offset="0" programID="0" type="static">
      <phase duration="15.1097766993" state="G"/>
      <phase duration="4.78300762127" state="y"/>
   </tlLogic>
   <tlLogic id="1271504813" offset="0" programID="0" type="static">
      <phase duration="10.6843320332" state="G"/>
      <phase duration="7.87057729362" state="y"/>
   </tlLogic>
   <tlLogic id="1271504816" offset="0" programID="0" type="static">
      <phase duration="16.3837361437" state="G"/>
      <phase duration="5.33823648811" state="y"/>
   </tlLogic>
   <tlLogic id="1271504819" offset="0" programID="0" type="static">
      <phase duration="18.6892907906" state="Gr"/>
      <phase duration="6.12553598145" state="yr"/>
      <phase duration="18.6892907906" state="rG"/>
      <phase duration="6.12553598145" state="ry"/>
   </tlLogic>
   <tlLogic id="1271504823" offset="0" programID="0" type="static">
      <phase duration="39.8767632821" state="G"/>
      <phase duration="9.89881972116" state="y"/>
   </tlLogic>
   <tlLogic id="1271504824" offset="0" programID="0" type="static">
      <phase duration="9.16399280008" state="G"/>
      <phase duration="6.32830962243" state="y"/>
   </tlLogic>
   <tlLogic id="1271504827" offset="0" programID="0" type="static">
      <phase duration="9.76251056118" state="Gr"/>
      <phase duration="4.01861668825" state="yr"/>
      <phase duration="9.76251056118" state="rG"/>
      <phase duration="4.01861668825" state="ry"/>
   </tlLogic>
   <tlLogic id="1271504828" offset="0" programID="0" type="static">
      <phase duration="17.8793911594" state="GGrrr"/>
      <phase duration="8.4299723587" state="yyrrr"/>
      <phase duration="17.8793911594" state="rrGrr"/>
      <phase duration="8.4299723587" state="rryrr"/>
      <phase duration="17.8793911594" state="rrrGG"/>
      <phase duration="8.4299723587" state="rrryy"/>
   </tlLogic>
   <tlLogic id="1271504829" offset="0" programID="0" type="static">
      <phase duration="28.6826564032" state="Gr"/>
      <phase duration="6.60124028618" state="yr"/>
      <phase duration="28.6826564032" state="rG"/>
      <phase duration="6.60124028618" state="ry"/>
   </tlLogic>
   <tlLogic id="1271504831" offset="0" programID="0" type="static">
      <phase duration="25.6161258345" state="G"/>
      <phase duration="2.73196920922" state="y"/>
   </tlLogic>
   <tlLogic id="1271504832" offset="0" programID="0" type="static">
      <phase duration="13.7801307583" state="Gr"/>
      <phase duration="9.89932987649" state="yr"/>
      <phase duration="13.7801307583" state="rG"/>
      <phase duration="9.89932987649" state="ry"/>
   </tlLogic>
   <tlLogic id="1271504834" offset="0" programID="0" type="static">
      <phase duration="21.9124503843" state="G"/>
      <phase duration="6.93818871719" state="y"/>
   </tlLogic>
   <tlLogic id="1271504836" offset="0" programID="0" type="static">
      <phase duration="18.9622376709" state="G"/>
      <phase duration="6.71040940726" state="y"/>
   </tlLogic>
   <tlLogic id="1271504838" offset="0" programID="0" type="static">
      <phase duration="18.8679579566" state="GGrrr"/>
      <phase duration="6.6407373708" state="yyrrr"/>
      <phase duration="18.8679579566" state="rrGGr"/>
      <phase duration="6.6407373708" state="rryyr"/>
      <phase duration="18.8679579566" state="rrrrG"/>
      <phase duration="6.6407373708" state="rrrry"/>
   </tlLogic>
   <tlLogic id="1271504841" offset="0" programID="0" type="static">
      <phase duration="21.972092403" state="G"/>
      <phase duration="7.68092810152" state="y"/>
   </tlLogic>
   <tlLogic id="1271504843" offset="0" programID="0" type="static">
      <phase duration="22.0694022392" state="Gr"/>
      <phase duration="6.09555070295" state="yr"/>
      <phase duration="22.0694022392" state="rG"/>
      <phase duration="6.09555070295" state="ry"/>
   </tlLogic>
   <tlLogic id="1271504849" offset="0" programID="0" type="static">
      <phase duration="10.0018981575" state="GGrrr"/>
      <phase duration="3.31853982826" state="yyrrr"/>
      <phase duration="10.0018981575" state="rrGrr"/>
      <phase duration="3.31853982826" state="rryrr"/>
      <phase duration="10.0018981575" state="rrrGG"/>
      <phase duration="3.31853982826" state="rrryy"/>
   </tlLogic>
   <tlLogic id="1271504850" offset="0" programID="0" type="static">
      <phase duration="27.0668550411" state="Gr"/>
      <phase duration="3.4377721238" state="yr"/>
      <phase duration="27.0668550411" state="rG"/>
      <phase duration="3.4377721238" state="ry"/>
   </tlLogic>
   <tlLogic id="1271504858" offset="0" programID="0" type="static">
      <phase duration="37.3516454491" state="G"/>
      <phase duration="6.90931932183" state="y"/>
   </tlLogic>
   <tlLogic id="1271504863" offset="0" programID="0" type="static">
      <phase duration="21.8410911984" state="G"/>
      <phase duration="6.26156488124" state="y"/>
   </tlLogic>
   <tlLogic id="1271504864" offset="0" programID="0" type="static">
      <phase duration="24.5834083672" state="G"/>
      <phase duration="5.21000988093" state="y"/>
   </tlLogic>
   <tlLogic id="1271504866" offset="0" programID="0" type="static">
      <phase duration="21.3433235385" state="G"/>
      <phase duration="9.69261860739" state="y"/>
   </tlLogic>
   <tlLogic id="1271504868" offset="0" programID="0" type="static">
      <phase duration="13.7601760786" state="Gr"/>
      <phase duration="8.52758299306" state="yr"/>
      <phase duration="13.7601760786" state="rG"/>
      <phase duration="8.52758299306" state="ry"/>
   </tlLogic>
   <tlLogic id="1271504873" offset="0" programID="0" type="static">
      <phase duration="20.6548621491" state="GGrrr"/>
      <phase duration="1.67861213244" state="yyrrr"/>
      <phase duration="20.6548621491" state="rrGrr"/>
      <phase duration="1.67861213244" state="rryrr"/>
      <phase duration="20.6548621491" state="rrrGG"/>
      <phase duration="1.67861213244" state="rrryy"/>
   </tlLogic>
   <tlLogic id="1271504878" offset="0" programID="0" type="static">
      <phase duration="28.7471087649" state="G"/>
      <phase duration="6.27385033797" state="y"/>
   </tlLogic>
   <tlLogic id="1271504887" offset="0" programID="0" type="static">
      <phase duration="16.2397590929" state="G"/>
      <phase duration="3.08574742045" state="y"/>
   </tlLogic>
   <tlLogic id="1271504888" offset="0" programID="0" type="static">
      <phase duration="13.9368292714" state="G"/>
      <phase duration="6.44659649636" state="y"/>
   </tlLogic>
   <tlLogic id="1271504889" offset="0" programID="0" type="static">
      <phase duration="19.1917626879" state="Gr"/>
      <phase duration="4.47175326426" state="yr"/>
      <phase duration="19.1917626879" state="rG"/>
      <phase duration="4.47175326426" state="ry"/>
   </tlLogic>
   <tlLogic id="1271504891" offset="0" programID="0" type="static">
      <phase duration="8.1941428712" state="G"/>
      <phase duration="3.41350026633" state="y"/>
   </tlLogic>
   <tlLogic id="1271504899" offset="0" programID="0" type="static">
      <phase duration="27.8358979106" state="G"/>
      <phase duration="6.42202978283" state="y"/>
   </tlLogic>
   <tlLogic id="1271504901" offset="0" programID="0" type="static">
      <phase duration="26.3360356863" state="GGrrr"/>
      <phase duration="5.6305676516" state="yyrrr"/>
      <phase duration="26.3360356863" state="rrGrr"/>
      <phase duration="5.6305676516" state="rryrr"/>
      <phase duration="26.3360356863" state="rrrGG"/>
      <phase duration="5.6305676516" state="rrryy"/>
   </tlLogic>
   <tlLogic id="1271504902" offset="0" programID="0" type="static">
      <phase duration="23.5779020223" state="Gr"/>
      <phase duration="7.25811155144" state="yr"/>
      <phase duration="23.5779020223" state="rG"/>
      <phase duration="7.25811155144" state="ry"/>
   </tlLogic>
   <tlLogic id="1271504904" offset="0" programID="0" type="static">
      <phase duration="14.9879514721" state="Grr"/>
      <phase duration="8.31432001949" state="yrr"/>
      <phase duration="14.9879514721" state="rGG"/>
      <phase duration="8.31432001949" state="ryy"/>
   </tlLogic>
   <tlLogic id="1271504907" offset="0" programID="0" type="static">
      <phase duration="34.0772707989" state="G"/>
      <phase duration="5.1111068551" state="y"/>
   </tlLogic>
   <tlLogic id="1271504908" offset="0" programID="0" type="static">
      <phase duration="24.5169625973" state="G"/>
      <phase duration="2.54385946933" state="y"/>
   </tlLogic>
   <tlLogic id="1298727142" offset="0" programID="0" type="static">
      <phase duration="25.1976821149" state="Gr"/>
      <phase duration="9.45672660088" state="yr"/>
      <phase duration="25.1976821149" state="rG"/>
      <phase duration="9.45672660088" state="ry"/>
   </tlLogic>
   <tlLogic id="1299369678" offset="0" programID="0" type="static">
      <phase duration="25.4423930724" state="G"/>
      <phase duration="9.77706206568" state="y"/>
   </tlLogic>
   <tlLogic id="1299369684" offset="0" programID="0" type="static">
      <phase duration="29.7204550339" state="G"/>
      <phase duration="6.24834095096" state="y"/>
   </tlLogic>
   <tlLogic id="1299369686" offset="0" programID="0" type="static">
      <phase duration="26.4051338109" state="G"/>
      <phase duration="3.02126092446" state="y"/>
   </tlLogic>
   <tlLogic id="1299369689" offset="0" programID="0" type="static">
      <phase duration="18.7670056613" state="GGrrr"/>
      <phase duration="5.82448550037" state="yyrrr"/>
      <phase duration="18.7670056613" state="rrGrr"/>
      <phase duration="5.82448550037" state="rryrr"/>
      <phase duration="18.7670056613" state="rrrGG"/>
      <phase duration="5.82448550037" state="rrryy"/>
   </tlLogic>
   <tlLogic id="1299369691" offset="0" programID="0" type="static">
      <phase duration="18.2667792225" state="Gr"/>
      <phase duration="8.04836251291" state="yr"/>
      <phase duration="18.2667792225" state="rG"/>
      <phase duration="8.04836251291" state="ry"/>
   </tlLogic>
   <tlLogic id="1299369694" offset="0" programID="0" type="static">
      <phase duration="10.0502165806" state="G"/>
      <phase duration="5.31439416807" state="y"/>
   </tlLogic>
   <tlLogic id="1299369699" offset="0" programID="0" type="static">
      <phase duration="16.9103022682" state="G"/>
      <phase duration="8.85208909544" state="y"/>
   </tlLogic>
   <tlLogic id="1312440659" offset="0" programID="0" type="static">
      <phase duration="31.3849915226" state="GGrrr"/>
      <phase duration="1.00646704626" state="yyrrr"/>
      <phase duration="31.3849915226" state="rrGrr"/>
      <phase duration="1.00646704626" state="rryrr"/>
      <phase duration="31.3849915226" state="rrrGG"/>
      <phase duration="1.00646704626" state="rrryy"/>
   </tlLogic>
   <tlLogic id="1312812204" offset="0" programID="0" type="static">
      <phase duration="29.6774530337" state="G"/>
      <phase duration="3.38563106172" state="y"/>
   </tlLogic>
   <tlLogic id="1353566368" offset="0" programID="0" type="static">
      <phase duration="26.2285235973" state="G"/>
      <phase duration="7.03445489724" state="y"/>
   </tlLogic>
   <tlLogic id="1353566371" offset="0" programID="0" type="static">
      <phase duration="21.0805888919" state="G"/>
      <phase duration="9.02399718775" state="y"/>
   </tlLogic>
   <tlLogic id="1366801174" offset="0" programID="0" type="static">
      <phase duration="19.3318707026" state="G"/>
      <phase duration="6.50232227275" state="y"/>
   </tlLogic>
   <tlLogic id="1366801190" offset="0" programID="0" type="static"/>
   <tlLogic id="1366801194" offset="0" programID="0" type="static"/>
   <tlLogic id="1366801221" offset="0" programID="0" type="static">
      <phase duration="20.3167757342" state="Gr"/>
      <phase duration="8.49485389797" state="yr"/>
      <phase duration="20.3167757342" state="rG"/>
      <phase duration="8.49485389797" state="ry"/>
   </tlLogic>
   <tlLogic id="1492679675" offset="0" programID="0" type="static">
      <phase duration="24.7199647573" state="Gr"/>
      <phase duration="1.71789603453" state="yr"/>
      <phase duration="24.7199647573" state="rG"/>
      <phase duration="1.71789603453" state="ry"/>
   </tlLogic>
   <tlLogic id="1492679681" offset="0" programID="0" type="static">
      <phase duration="26.817762887" state="G"/>
      <phase duration="2.8104053164" state="y"/>
   </tlLogic>
   <tlLogic id="1492679696" offset="0" programID="0" type="static">
      <phase duration="36.5800937846" state="Gr"/>
      <phase duration="4.96628226554" state="yr"/>
      <phase duration="36.5800937846" state="rG"/>
      <phase duration="4.96628226554" state="ry"/>
   </tlLogic>
   <tlLogic id="1492679714" offset="0" programID="0" type="static">
      <phase duration="29.1442319748" state="Gr"/>
      <phase duration="5.51619265689" state="yr"/>
      <phase duration="29.1442319748" state="rG"/>
      <phase duration="5.51619265689" state="ry"/>
   </tlLogic>
   <tlLogic id="1492679718" offset="0" programID="0" type="static"/>
   <tlLogic id="1492679729" offset="0" programID="0" type="static">
      <phase duration="21.334462668" state="G"/>
      <phase duration="3.19914564003" state="y"/>
   </tlLogic>
   <tlLogic id="1492679733" offset="0" programID="0" type="static">
      <phase duration="24.0619964973" state="Gr"/>
      <phase duration="4.53449843665" state="yr"/>
      <phase duration="24.0619964973" state="rG"/>
      <phase duration="4.53449843665" state="ry"/>
   </tlLogic>
   <tlLogic id="1492679738" offset="0" programID="0" type="static">
      <phase duration="22.7956016657" state="G"/>
      <phase duration="9.87938757053" state="y"/>
   </tlLogic>
   <tlLogic id="1492679747" offset="0" programID="0" type="static">
      <phase duration="16.9553247936" state="Gr"/>
      <phase duration="6.48838634883" state="yr"/>
      <phase duration="16.9553247936" state="rG"/>
      <phase duration="6.48838634883" state="ry"/>
   </tlLogic>
   <tlLogic id="1492679749" offset="0" programID="0" type="static">
      <phase duration="35.2071719652" state="GGrrr"/>
      <phase duration="5.22869227606" state="yyrrr"/>
      <phase duration="35.2071719652" state="rrGGr"/>
      <phase duration="5.22869227606" state="rryyr"/>
      <phase duration="35.2071719652" state="rrrrG"/>
      <phase duration="5.22869227606" state="rrrry"/>
   </tlLogic>
   <tlLogic id="1492679753" offset="0" programID="0" type="static">
      <phase duration="22.153695901" state="G"/>
      <phase duration="4.39718788917" state="y"/>
   </tlLogic>
   <tlLogic id="1492679755" offset="0" programID="0" type="static">
      <phase duration="13.7211196113" state="G"/>
      <phase duration="8.24762910595" state="y"/>
   </tlLogic>
   <tlLogic id="1492802032" offset="0" programID="0" type="static">
      <phase duration="29.7032138839" state="G"/>
      <phase duration="7.33452134979" state="y"/>
   </tlLogic>
   <tlLogic id="1492802033" offset="0" programID="0" type="static">