<?xml version="1.0" ?>
<tlLogics>
   <tlLogic id="1000099468" offset="0" programID="0" type="static">
      <phase duration="22.9711283171" state="G"/>
      <phase duration="8.20842335596" state="y"/>
   </tlLogic>
   <tlLogic id="1000099475" offset="0" programID="0" type="static">
      <phase duration="13.0396863959" state="GG"/>
      <phase duration="6.03938005761" state="yy"/>
   </tlLogic>
   <tlLogic id="1000099520" offset="0" programID="0" type="static">
      <phase duration="15.828805986" state="G"/>
      <phase duration="8.83930830817" state="y"/>
   </tlLogic>
   <tlLogic id="1000099553" offset="0" programID="0" type="static">
      <phase duration="17.6986419277" state="Gr"/>
      <phase duration="8.62132347157" state="yr"/>
      <phase duration="17.6986419277" state="rG"/>
      <phase duration="8.62132347157" state="ry"/>
   </tlLogic>
   <tlLogic id="1000099576" offset="0" programID="0" type="static">
      <phase duration="29.2519685847" state="Grrrr"/>
      <phase duration="9.6712437652" state="yrrrr"/>
      <phase duration="29.2519685847" state="rGGrr"/>
      <phase duration="9.6712437652" state="ryyrr"/>
      <phase duration="29.2519685847" state="rrrGG"/>
      <phase duration="9.6712437652" state="rrryy"/>
   </tlLogic>
   <tlLogic id="1000099591" offset="0" programID="0" type="static">
      <phase duration="16.0036088066" state="GGrr"/>
      <phase duration="3.59899474002" state="yyrr"/>
      <phase duration="16.0036088066" state="rrGG"/>
      <phase duration="3.59899474002" state="rryy"/>
   </tlLogic>
   <tlLogic id="1000099724" offset="0" programID="0" type="static">
      <phase duration="20.3610841878" state="Grrr"/>
      <phase duration="8.07724508892" state="yrrr"/>
      <phase duration="20.3610841878" state="rGGG"/>
      <phase duration="8.07724508892" state="ryyy"/>
   </tlLogic>
   <tlLogic id="1000099741" offset="0" programID="0" type="static">
      <phase duration="20.1009925228" state="GGrr"/>
      <phase duration="9.58919582439" state="yyrr"/>
      <phase duration="20.1009925228" state="rrGG"/>
      <phase duration="9.58919582439" state="rryy"/>
   </tlLogic>
   <tlLogic id="1012321580" offset="0" programID="0" type="static">
      <phase duration="30.9161420448" state="Gr"/>
      <phase duration="6.59286964627" state="yr"/>
      <phase duration="30.9161420448" state="rG"/>
      <phase duration="6.59286964627" state="ry"/>
   </tlLogic>
   <tlLogic id="1012326820" offset="0" programID="0" type="static">
      <phase duration="11.0377504844" state="G"/>
      <phase duration="3.53919398971" state="y"/>
   </tlLogic>
   <tlLogic id="1028832186" offset="0" programID="0" type="static"/>
   <tlLogic id="1037290808" offset="0" programID="0" type="static">
      <phase duration="19.182057522" state="GGGrrrrrr"/>
      <phase duration="7.12620705413" state="yyyrrrrrr"/>
      <phase duration="19.182057522" state="rrrGGGrrr"/>
      <phase duration="7.12620705413" state="rrryyyrrr"/>
      <phase duration="19.182057522" state="rrrrrrGGG"/>
      <phase duration="7.12620705413" state="rrrrrryyy"/>
   </tlLogic>
   <tlLogic id="1037290915" offset="0" programID="0" type="static">
      <phase duration="9.25343952635" state="GGrrr"/>
      <phase duration="9.80383149146" state="yyrrr"/>
      <phase duration="9.25343952635" state="rrGGG"/>
      <phase duration="9.80383149146" state="rryyy"/>
   </tlLogic>
   <tlLogic id="1037290944" offset="0" programID="0" type="static">
      <phase duration="19.5258977819" state="G"/>
      <phase duration="8.50494383766" state="y"/>
   </tlLogic>
   <tlLogic id="1040964328" offset="0" programID="0" type="static">
      <phase duration="18.0492215001" state="Gr"/>
      <phase duration="8.03371584258" state="yr"/>
      <phase duration="18.0492215001" state="rG"/>
      <phase duration="8.03371584258" state="ry"/>
   </tlLogic>
   <tlLogic id="1040964333" offset="0" programID="0" type="static">
      <phase duration="25.8177934451" state="Gr"/>
      <phase duration="4.73035684185" state="yr"/>
      <phase duration="25.8177934451" state="rG"/>
      <phase duration="4.73035684185" state="ry"/>
   </tlLogic>
   <tlLogic id="1045044715" offset="0" programID="0" type="static">
      <phase duration="23.855613977" state="Gr"/>
      <phase duration="9.20314157855" state="yr"/>
      <phase duration="23.855613977" state="rG"/>
      <phase duration="9.20314157855" state="ry"/>
   </tlLogic>
   <tlLogic id="1045044796" offset="0" programID="0" type="static">
      <phase duration="9.43556982607" state="Gr"/>
      <phase duration="4.24957865123" state="yr"/>
      <phase duration="9.43556982607" state="rG"/>
      <phase duration="4.24957865123" state="ry"/>
   </tlLogic>
   <tlLogic id="1045044863" offset="0" programID="0" type="static">
      <phase duration="18.9912277113" state="G"/>
      <phase duration="6.21351399421" state="y"/>
   </tlLogic>
   <tlLogic id="1062771951" offset="0" programID="0" type="static">
      <phase duration="14.8814446122" state="GGrr"/>
      <phase duration="4.97698332894" state="yyrr"/>
      <phase duration="14.8814446122" state="rrGG"/>
      <phase duration="4.97698332894" state="rryy"/>
   </tlLogic>
   <tlLogic id="1062771990" offset="0" programID="0" type="static">
      <phase duration="33.6131817822" state="G"/>
      <phase duration="6.98894121868" state="y"/>
   </tlLogic>
   <tlLogic id="1125127500" offset="0" programID="0" type="static">
      <phase duration="18.0570561978" state="GG"/>
      <phase duration="7.82348657034" state="yy"/>
   </tlLogic>
   <tlLogic id="1150667539" offset="0" programID="0" type="static">
      <phase duration="10.827789231" state="G"/>
      <phase duration="7.71216859905" state="y"/>
   </tlLogic>
   <tlLogic id="1150667540" offset="0" programID="0" type="static">
      <phase duration="27.5675410475" state="G"/>
      <phase duration="7.30227313905" state="y"/>
   </tlLogic>
   <tlLogic id="1150667558" offset="0" programID="0" type="static">
      <phase duration="18.6906498423" state="Gr"/>
      <phase duration="8.12574223746" state="yr"/>
      <phase duration="18.6906498423" state="rG"/>
      <phase duration="8.12574223746" state="ry"/>
   </tlLogic>
   <tlLogic id="1150667560" offset="0" programID="0" type="static">
      <phase duration="13.4330267698" state="G"/>
      <phase duration="7.38817415189" state="y"/>
   </tlLogic>
   <tlLogic id="1150667568" offset="0" programID="0" type="static"/>
   <tlLogic id="1150667608" offset="0" programID="0" type="static">
      <phase duration="26.0787413668" state="Gr"/>
      <phase duration="6.57129464454" state="yr"/>
      <phase duration="26.0787413668" state="rG"/>
      <phase duration="6.57129464454" state="ry"/>
   </tlLogic>
   <tlLogic id="1150667618" offset="0" programID="0" type="static">
      <phase duration="19.079475189" state="G"/>
      <phase duration="5.79216220986" state="y"/>
   </tlLogic>
   <tlLogic id="1156723779" offset="0" programID="0" type="static">
      <phase duration="24.8432436308" state="GGrrr"/>
      <phase duration="3.94876532566" state="yyrrr"/>
      <phase duration="24.8432436308" state="rrGrr"/>
      <phase duration="3.94876532566" state="rryrr"/>
      <phase duration="24.8432436308" state="rrrGG"/>
      <phase duration="3.94876532566" state="rrryy"/>
   </tlLogic>
   <tlLogic id="1156723834" offset="0" programID="0" type="static">
      <phase duration="21.6504033545" state="G"/>
      <phase duration="3.29356793624" state="y"/>
   </tlLogic>
   <tlLogic id="1156723839" offset="0" programID="0" type="static">
      <phase duration="22.2301139226" state="Gr"/>
      <phase duration="8.16285215534" state="yr"/>
      <phase duration="22.2301139226" state="rG"/>
      <phase duration="8.16285215534" state="ry"/>
   </tlLogic>
   <tlLogic id="1200892937" offset="0" programID="0" type="static">
      <phase duration="23.0986893355" state="G"/>
      <phase duration="2.7774944201" state="y"/>
   </tlLogic>
   <tlLogic id="1201745377" offset="0" programID="0" type="static">
      <phase duration="24.0473313559" state="G"/>
      <phase duration="6.14447638743" state="y"/>
   </tlLogic>
   <tlLogic id="1201745409" offset="0" programID="0" type="static">
      <phase duration="28.0105044979" state="G"/>
      <phase duration="7.83687904875" state="y"/>
   </tlLogic>
   <tlLogic id="1211136595" offset="0" programID="0" type="static">
      <phase duration="34.8588582123" state="G"/>
      <phase duration="4.6204876251" state="y"/>
   </tlLogic>
   <tlLogic id="1220020545" offset="0" programID="0" type="static">
      <phase duration="22.8843826704" state="GGrrr"/>
      <phase duration="8.63417707742" state="yyrrr"/>
      <phase duration="22.8843826704" state="rrGrr"/>
      <phase duration="8.63417707742" state="rryrr"/>
      <phase duration="22.8843826704" state="rrrGG"/>
      <phase duration="8.63417707742" state="rrryy"/>
   </tlLogic>
   <tlLogic id="1220020592" offset="0" programID="0" type="static">
      <phase duration="34.6600309341" state="Gr"/>
      <phase duration="6.18703736896" state="yr"/>
      <phase duration="34.6600309341" state="rG"/>
      <phase duration="6.18703736896" state="ry"/>
   </tlLogic>
   <tlLogic id="1220020630" offset="0" programID="0" type="static">
      <phase duration="18.5586110552" state="Gr"/>
      <phase duration="9.90362320645" state="yr"/>
      <phase duration="18.5586110552" state="rG"/>
      <phase duration="9.90362320645" state="ry"/>
   </tlLogic>
   <tlLogic id="1220020656" offset="0" programID="0" type="static">
      <phase duration="14.6946121055" state="GGrr"/>
      <phase duration="8.81085115374" state="yyrr"/>
      <phase duration="14.6946121055" state="rrGG"/>
      <phase duration="8.81085115374" state="rryy"/>
   </tlLogic>
   <tlLogic id="1220020673" offset="0" programID="0" type="static">
      <phase duration="18.3536684046" state="GGGrrrrrr"/>
      <phase duration="9.8062431547" state="yyyrrrrrr"/>
      <phase duration="18.3536684046" state="rrrGGGrrr"/>
      <phase duration="9.8062431547" state="rrryyyrrr"/>
      <phase duration="18.3536684046" state="rrrrrrGGG"/>
      <phase duration="9.8062431547" state="rrrrrryyy"/>
   </tlLogic>
   <tlLogic id="1229522509" offset="0" programID="0" type="static">
      <phase duration="19.7915845859" state="G"/>
      <phase duration="7.04616262657" state="y"/>
   </tlLogic>
   <tlLogic id="1229522552" offset="0" programID="0" type="static">
      <phase duration="12.0045071237" state="G"/>
      <phase duration="3.94802348749" state="y"/>
   </tlLogic>
   <tlLogic id="1229522554" offset="0" programID="0" type="static">
      <phase duration="14.0301644643" state="G"/>
      <phase duration="9.99129798857" state="y"/>
   </tlLogic>
   <tlLogic id="1252285079" offset="0" programID="0" type="static">
      <phase duration="32.5270467684" state="Gr"/>
      <phase duration="8.84301965472" state="yr"/>
      <phase duration="32.5270467684" state="rG"/>
      <phase duration="8.84301965472" state="ry"/>
   </tlLogic>
   <tlLogic id="1252285085" offset="0" programID="0" type="static">
      <phase duration="8.33584368812" state="Gr"/>
      <phase duration="7.18553421712" state="yr"/>
      <phase duration="8.33584368812" state="rG"/>
      <phase duration="7.18553421712" state="ry"/>
   </tlLogic>
   <tlLogic id="1252285087" offset="0" programID="0" type="static"/>
   <tlLogic id="1252285093" offset="0" programID="0" type="static">
      <phase duration="22.3954127012" state="Gr"/>
      <phase duration="5.43742089971" state="yr"/>
      <phase duration="22.3954127012" state="rG"/>
      <phase duration="5.43742089971" state="ry"/>
   </tlLogic>
   <tlLogic id="1252285107" offset="0" programID="0" type="static">
      <phase duration="18.2651320852" state="G"/>
      <phase duration="4.52997491501" state="y"/>
   </tlLogic>
   <tlLogic id="1252285133" offset="0" programID="0" type="static">
      <phase duration="10.0997951687" state="Gr"/>
      <phase duration="3.46242867469" state="yr"/>
      <phase duration="10.0997951687" state="rG"/>
      <phase duration="3.46242867469" state="ry"/>
   </tlLogic>
   <tlLogic id="1252285137" offset="0" programID="0" type="static">
      <phase duration="7.72748788292" state="Gr"/>
      <phase duration="9.8352884973" state="yr"/>
      <phase duration="7.72748788292" state="rG"/>
      <phase duration="9.8352884973" state="ry"/>
   </tlLogic>
   <tlLogic id="1252285140" offset="0" programID="0" type="static">
      <phase duration="11.1259964643" state="Gr"/>
      <phase duration="8.27558829485" state="yr"/>
      <phase duration="11.1259964643" state="rG"/>
      <phase duration="8.27558829485" state="ry"/>
   </tlLogic>
   <tlLogic id="1271504748" offset="0" programID="0" type="static">
      <phase duration="16.524851063" state="Gr"/>
      <phase duration="5.07685016831" state="yr"/>
      <phase duration="16.524851063" state="rG"/>
      <phase duration="5.07685016831" state="ry"/>
   </tlLogic>
   <tlLogic id="1271504750" offset="0" programID="0" type="static">
      <phase duration="21.0083366253" state="G"/>
      <phase duration="3.90197461133" state="y"/>
   </tlLogic>
   <tlLogic id="1271504755" offset="0" programID="0" type="static">
      <phase duration="10.4798257148" state="GGrrr"/>
      <phase duration="2.50546553992" state="yyrrr"/>
      <phase duration="10.4798257148" state="rrGrr"/>
      <phase duration="2.50546553992" state="rryrr"/>
      <phase duration="10.4798257148" state="rrrGG"/>
      <phase duration="2.50546553992" state="rrryy"/>
   </tlLogic>
   <tlLogic id="1271504756" offset="0" programID="0" type="static">
      <phase duration="26.0989195779" state="Gr"/>
      <phase duration="8.35139963106" state="yr"/>
      <phase duration="26.0989195779" state="rG"/>
      <phase duration="8.35139963106" state="ry"/>
   </tlLogic>
   <tlLogic id="1271504758" offset="0" programID="0" type="static">
      <phase duration="34.3984271816" state="G"/>
      <phase duration="8.28678445987" state="y"/>
   </tlLogic>
   <tlLogic id="1271504766" offset="0" programID="0" type="static">
      <phase duration="10.215926922" state="Gr"/>
      <phase duration="7.73698088925" state="yr"/>
      <phase duration="10.215926922" state="rG"/>
      <phase duration="7.73698088925" state="ry"/>
   </tlLogic>
   <tlLogic id="1271504767" offset="0" programID="0" type="static">
      <phase duration="16.3551292974" state="G"/>
      <phase duration="7.12461759861" state="y"/>
   </tlLogic>
   <tlLogic id="1271504768" offset="0" programID="0" type="static">
      <phase duration="24.6375543111" state="Gr"/>
      <phase duration="9.13175679691" state="yr"/>
      <phase duration="24.6375543111" state="rG"/>
      <phase duration="9.13175679691" state="ry"/>
   </tlLogic>
   <tlLogic id="1271504770" offset="0" programID="0" type="static">
      <phase duration="17.066856996" state="Gr"/>
      <phase duration="3.32190811332" state="yr"/>
      <phase duration="17.066856996" state="rG"/>
      <phase duration="3.32190811332" state="ry"/>
   </tlLogic>
   <tlLogic id="1271504774" offset="0" programID="0" type="static">
      <phase duration="14.0075907236" state="G"/>
      <phase duration="7.06290221452" state="y"/>
   </tlLogic>
   <tlLogic id="1271504775" offset="0" programID="0" type="static">
      <phase duration="25.2772610277" state="Gr"/>
      <phase duration="4.43584147439" state="yr"/>
      <phase duration="25.2772610277" state="rG"/>
      <phase duration="4.43584147439" state="ry"/>
   </tlLogic>
   <tlLogic id="1271504778" offset="0" programID="0" type="static">
      <phase duration="20.8901131948" state="G"/>
      <phase duration="9.85374783481" state="y"/>
   </tlLogic>
   <tlLogic id="1271504788" offset="0" programID="0" type="static">
      <phase duration="11.6162186246" state="GGrrr"/>
      <phase duration="9.60912616566" state="yyrrr"/>
      <phase duration="11.6162186246" state="rrGGG"/>
      <phase duration="9.60912616566" state="rryyy"/>
   </tlLogic>
   <tlLogic id="1271504795" offset="0" programID="0" type="static">
      <phase duration="21.7009775224" state="G"/>
      <phase duration="4.30190889452" state="y"/>
   </tlLogic>
   <tlLogic id="1271504797" offset="0" programID="0" type="static">
      <phase duration="29.6274436164" state="Gr"/>
      <phase duration="8.68397631879" state="yr"/>
      <phase duration="29.6274436164" state="rG"/>
      <phase duration="8.68397631879" state="ry"/>
   </tlLogic>
   <tlLogic id="1271504804" offset="0" programID="0" type="static">
      <phase duration="33.0110268279" state="Gr"/>
      <phase duration="7.19177688793" state="yr"/>
      <phase duration="33.0110268279" state="rG"/>
      <phase duration="7.19177688793" state="ry"/>
   </tlLogic>
   <tlLogic id="1271504813" offset="0" programID="0" type="static">
      <phase duration="23.8558097238" state="G"/>
      <phase duration="9.3380738115" state="y"/>
   </tlLogic>
   <tlLogic id="1271504816" offset="0" programID="0" type="static">
      <phase duration="6.70846493695" state="G"/>
      <phase duration="9.09026428994" state="y"/>
   </tlLogic>
   <tlLogic id="1271504819" offset="0" programID="0" type="static">
      <phase duration="7.97438476005" state="Gr"/>
      <phase duration="4.53677767393" state="yr"/>
      <phase duration="7.97438476005" state="rG"/>
      <phase duration="4.53677767393" state="ry"/>
   </tlLogic>
   <tlLogic id="1271504822" offset="0" programID="0" type="static">
      <phase duration="14.011486673" state="G"/>
      <phase duration="9.28036564703" state="y"/>
   </tlLogic>
   <tlLogic id="1271504824" offset="0" programID="0" type="static">
      <phase duration="8.78812830664" state="G"/>
      <phase duration="3.32221530057" state="y"/>
   </tlLogic>
   <tlLogic id="1271504827" offset="0" programID="0" type="static">
      <phase duration="23.8019638213" state="Gr"/>
      <phase duration="9.84988007739" state="yr"/>
      <phase duration="23.8019638213" state="rG"/>
      <phase duration="9.84988007739" state="ry"/>
   </tlLogic>
   <tlLogic id="1271504828" offset="0" programID="0" type="static">
      <phase duration="18.9247510717" state="GGrrr"/>
      <phase duration="9.03095963422" state="yyrrr"/>
      <phase duration="18.9247510717" state="rrGrr"/>
      <phase duration="9.03095963422" state="rryrr"/>
      <phase duration="18.9247510717" state="rrrGG"/>
      <phase duration="9.03095963422" state="rrryy"/>
   </tlLogic>
   <tlLogic id="1271504829" offset="0" programID="0" type="static">
      <phase duration="20.7730243258" state="Gr"/>
      <phase duration="4.16384975764" state="yr"/>
      <phase duration="20.7730243258" state="rG"/>
      <phase duration="4.16384975764" state="ry"/>
   </tlLogic>
   <tlLogic id="1271504830" offset="0" programID="0" type="static">
      <phase duration="31.856575574" state="GGrrr"/>
      <phase duration="7.52251850488" state="yyrrr"/>
      <phase duration="31.856575574" state="rrGrr"/>
      <phase duration="7.52251850488" state="rryrr"/>
      <phase duration="31.856575574" state="rrrGG"/>
      <phase duration="7.52251850488" state="rrryy"/>
   </tlLogic>
   <tlLogic id="1271504831" offset="0" programID="0" type="static">
      <phase duration="17.2704382245" state="G"/>
      <phase duration="7.50004121493" state="y"/>
   </tlLogic>
   <tlLogic id="1271504832" offset="0" programID="0" type="static">
      <phase duration="12.6931655659" state="Gr"/>
      <phase duration="2.38193425778" state="yr"/>
      <phase duration="12.6931655659" state="rG"/>
      <phase duration="2.38193425778" state="ry"/>
   </tlLogic>
   <tlLogic id="1271504834" offset="0" programID="0" type="static">
      <phase duration="17.1587538525" state="G"/>
      <phase duration="5.45544180335" state="y"/>
   </tlLogic>
   <tlLogic id="1271504842" offset="0" programID="0" type="static">
      <phase duration="27.1242515321" state="G"/>
      <phase duration="6.40470484306" state="y"/>
   </tlLogic>
   <tlLogic id="1271504845" offset="0" programID="0" type="static">
      <phase duration="17.4171166288" state="G"/>
      <phase duration="7.93001448775" state="y"/>
   </tlLogic>
   <tlLogic id="1271504849" offset="0" programID="0" type="static">
      <phase duration="19.1921145048" state="GGrrr"/>
      <phase duration="5.32155618245" state="yyrrr"/>
      <phase duration="19.1921145048" state="rrGrr"/>
      <phase duration="5.32155618245" state="rryrr"/>
      <phase duration="19.1921145048" state="rrrGG"/>
      <phase duration="5.32155618245" state="rrryy"/>
   </tlLogic>
   <tlLogic id="1271504850" offset="0" programID="0" type="static">
      <phase duration="24.2800686351" state="Gr"/>
      <phase duration="6.76974477428" state="yr"/>
      <phase duration="24.2800686351" state="rG"/>
      <phase duration="6.76974477428" state="ry"/>
   </tlLogic>
   <tlLogic id="1271504858" offset="0" programID="0" type="static">
      <phase duration="36.8761600247" state="G"/>
      <phase duration="7.62957217951" state="y"/>
   </tlLogic>
   <tlLogic id="1271504861" offset="0" programID="0" type="static">
      <phase duration="17.8613808805" state="G"/>
      <phase duration="1.18601901237" state="y"/>
   </tlLogic>
   <tlLogic id="1271504864" offset="0" programID="0" type="static">
      <phase duration="23.6196811638" state="G"/>
      <phase duration="6.85649665358" state="y"/>
   </tlLogic>
   <tlLogic id="1271504867" offset="0" programID="0" type="static">
      <phase duration="29.9287978113" state="G"/>
      <phase duration="8.94171056273" state="y"/>
   </tlLogic>
   <tlLogic id="1271504868" offset="0" programID="0" type="static">
      <phase duration="21.2200203011" state="Gr"/>
      <phase duration="5.8562869769" state="yr"/>
      <phase duration="21.2200203011" state="rG"/>
      <phase duration="5.8562869769" state="ry"/>
   </tlLogic>
   <tlLogic id="1271504871" offset="0" programID="0" type="static">
      <phase duration="7.73461757866" state="GGrr"/>
      <phase duration="6.89373593668" state="yyrr"/>
      <phase duration="7.73461757866" state="rrGG"/>
      <phase duration="6.89373593668" state="rryy"/>
   </tlLogic>
   <tlLogic id="1271504872" offset="0" programID="0" type="static">
      <phase duration="21.7555321948" state="G"/>
      <phase duration="5.41750541493" state="y"/>
   </tlLogic>
   <tlLogic id="1271504873" offset="0" programID="0" type="static">
      <phase duration="21.0288659489" state="GGrrr"/>
      <phase duration="9.48791614616" state="yyrrr"/>
      <phase duration="21.0288659489" state="rrGrr"/>
      <phase duration="9.48791614616" state="rryrr"/>
      <phase duration="21.0288659489" state="rrrGG"/>
      <phase duration="9.48791614616" state="rrryy"/>
   </tlLogic>
   <tlLogic id="1271504875" offset="0" programID="0" type="static">
      <phase duration="26.9353718642" state="G"/>
      <phase duration="4.01146957083" state="y"/>
   </tlLogic>
   <tlLogic id="1271504878" offset="0" programID="0" type="static">
      <phase duration="39.9976020692" state="G"/>
      <phase duration="3.10633048495" state="y"/>
   </tlLogic>
   <tlLogic id="1271504884" offset="0" programID="0" type="static">
      <phase duration="21.4146737277" state="G"/>
      <phase duration="6.4640384212" state="y"/>
   </tlLogic>
   <tlLogic id="1271504887" offset="0" programID="0" type="static">
      <phase duration="22.1684541275" state="G"/>
      <phase duration="7.76800742852" state="y"/>
   </tlLogic>
   <tlLogic id="1271504891" offset="0" programID="0" type="static">
      <phase duration="15.1829818089" state="G"/>
      <phase duration="9.9924949902" state="y"/>
   </tlLogic>
   <tlLogic id="1271504893" offset="0" programID="0" type="static">
      <phase duration="17.9865316788" state="GGrrr"/>
      <phase duration="7.83247314268" state="yyrrr"/>
      <phase duration="17.9865316788" state="rrGrr"/>
      <phase duration="7.83247314268" state="rryrr"/>
      <phase duration="17.9865316788" state="rrrGG"/>
      <phase duration="7.83247314268" state="rrryy"/>
   </tlLogic>
   <tlLogic id="1271504898" offset="0" programID="0" type="static">
      <phase duration="32.3666300987" state="Gr"/>
      <phase duration="9.2061885937" state="yr"/>
      <phase duration="32.3666300987" state="rG"/>
      <phase duration="9.2061885937" state="ry"/>
   </tlLogic>
   <tlLogic id="1271504899" offset="0" programID="0" type="static">
      <phase duration="15.557455712" state="G"/>
      <phase duration="8.71755828684" state="y"/>
   </tlLogic>
   <tlLogic id="1271504901" offset="0" programID="0" type="static">
      <phase duration="25.0728730084" state="GGrrr"/>
      <phase duration="9.49204004725" state="yyrrr"/>
      <phase duration="25.0728730084" state="rrGrr"/>
      <phase duration="9.49204004725" state="rryrr"/>
      <phase duration="25.0728730084" state="rrrGG"/>
      <phase duration="9.49204004725" state="rrryy"/>
   </tlLogic>
   <tlLogic id="1271504905" offset="0" programID="0" type="static">
      <phase duration="22.8067901955" state="G"/>
      <phase duration="8.00216500075" state="y"/>
   </tlLogic>
   <tlLogic id="1271504907" offset="0" programID="0" type="static">
      <phase duration="34.394630711" state="G"/>
      <phase duration="7.87069607371" state="y"/>
   </tlLogic>
   <tlLogic id="1271504910" offset="0" programID="0" type="static">
      <phase duration="30.8907668008" state="Gr"/>
      <phase duration="9.98469684919" state="yr"/>
      <phase duration="30.8907668008" state="rG"/>
      <phase duration="9.98469684919" state="ry"/>
   </tlLogic>
   <tlLogic id="1271504911" offset="0" programID="0" type="static">
      <phase duration="10.4800052269" state="G"/>
      <phase duration="5.70421349411" state="y"/>
   </tlLogic>
   <tlLogic id="1298727142" offset="0" programID="0" type="static">
      <phase duration="25.7101855717" state="Gr"/>
      <phase duration="9.94028833703" state="yr"/>
      <phase duration="25.7101855717" state="rG"/>
      <phase duration="9.94028833703" state="ry"/>
   </tlLogic>
   <tlLogic id="1299369679" offset="0" programID="0" type="static">
      <phase duration="9.18023558261" state="G"/>
      <phase duration="7.12180325835" state="y"/>
   </tlLogic>
   <tlLogic id="1299369684" offset="0" programID="0" type="static">
      <phase duration="32.0687391765" state="G"/>
      <phase duration="6.6660681978" state="y"/>
   </tlLogic>
   <tlLogic id="1299369691" offset="0" programID="0" type="static">
      <phase duration="14.2850425956" state="Gr"/>
      <phase duration="2.48667879595" state="yr"/>
      <phase duration="14.2850425956" state="rG"/>
      <phase duration="2.48667879595" state="ry"/>
   </tlLogic>
   <tlLogic id="1299369694" offset="0" programID="0" type="static">
      <phase duration="27.2672226004" state="G"/>
      <phase duration="9.65210290109" state="y"/>
   </tlLogic>
   <tlLogic id="1299369701" offset="0" programID="0" type="static">
      <phase duration="21.9780151004" state="GGrrr"/>
      <phase duration="5.07289500055" state="yyrrr"/>
      <phase duration="21.9780151004" state="rrGrr"/>
      <phase duration="5.07289500055" state="rryrr"/>
      <phase duration="21.9780151004" state="rrrGG"/>
      <phase duration="5.07289500055" state="rrryy"/>
   </tlLogic>
   <tlLogic id="1312440651" offset="0" programID="0" type="static">
      <phase duration="24.0392346075" state="G"/>
      <phase duration="5.20215040965" state="y"/>
   </tlLogic>
   <tlLogic id="1312440659" offset="0" programID="0" type="static">
      <phase duration="27.2757865837" state="GGrrr"/>
      <phase duration="9.17901898366" state="yyrrr"/>
      <phase duration="27.2757865837" state="rrGrr"/>
      <phase duration="9.17901898366" state="rryrr"/>
      <phase duration="27.2757865837" state="rrrGG"/>
      <phase duration="9.17901898366" state="rrryy"/>
   </tlLogic>
   <tlLogic id="1312440715" offset="0" programID="0" type="static">
      <phase duration="23.0489712116" state="Gr"/>
      <phase duration="8.4618834931" state="yr"/>
      <phase duration="23.0489712116" state="rG"/>
      <phase duration="8.4618834931" state="ry"/>
   </tlLogic>
   <tlLogic id="1312812204" offset="0" programID="0" type="static">
      <phase duration="16.4638329883" state="G"/>
      <phase duration="5.8527110279" state="y"/>
   </tlLogic>
   <tlLogic id="1353566368" offset="0" programID="0" type="static">
      <phase duration="31.4569008647" state="G"/>
      <phase duration="9.78634331402" state="y"/>
   </tlLogic>
   <tlLogic id="1353566371" offset="0" programID="0" type="static">
      <phase duration="14.5109916243" state="G"/>
      <phase duration="7.70193465677" state="y"/>
   </tlLogic>
   <tlLogic id="1360932319" offset="0" programID="0" type="static"/>
   <tlLogic id="1366801190" offset="0" programID="0" type="static"/>
   <tlLogic id="1366801194" offset="0" programID="0" type="static"/>
   <tlLogic id="1366801204" offset="0" programID="0" type="static">
      <phase duration="29.8929554502" state="G"/>
      <phase duration="2.81183214391" state="y"/>
   </tlLogic>
   <tlLogic id="1366801221" offset="0" programID="0" type="static">
      <phase duration="23.01670413" state="Gr"/>
      <phase duration="9.4613116812" state="yr"/>
      <phase duration="23.01670413" state="rG"/>
      <phase duration="9.4613116812" state="ry"/>
   </tlLogic>
   <tlLogic id="1492679675" offset="0" programID="0" type="static">
      <phase duration="26.7803966137" state="Gr"/>
      <phase duration="7.04508879488" state="yr"/>
      <phase duration="26.7803966137" state="rG"/>
      <phase duration="7.04508879488" state="ry"/>
   </tlLogic>
   <tlLogic id="1492679681" offset="0" programID="0" type="static">
      <phase duration="20.8807199277" state="G"/>
      <phase duration="1.79971345979" state="y"/>
   </tlLogic>
   <tlLogic id="1492679714" offset="0" programID="0" type="static">