<?xml version="1.0" ?>
<tlLogics>
   <tlLogic id="1000099503" offset="0" programID="0" type="static">
      <phase duration="19.9709813422" state="GGGrrrrrrrr"/>
      <phase duration="6.35428099243" state="yyyrrrrrrrr"/>
      <phase duration="19.9709813422" state="rrrGGGrrrrr"/>
      <phase duration="6.35428099243" state="rrryyyrrrrr"/>
      <phase duration="19.9709813422" state="rrrrrrGGGGG"/>
      <phase duration="6.35428099243" state="rrrrrryyyyy"/>
   </tlLogic>
   <tlLogic id="1000099544" offset="0" programID="0" type="static">
      <phase duration="6.52241850366" state="GGrrr"/>
      <phase duration="8.44585348824" state="yyrrr"/>
      <phase duration="6.52241850366" state="rrGGr"/>
      <phase duration="8.44585348824" state="rryyr"/>
      <phase duration="6.52241850366" state="rrrrG"/>
      <phase duration="8.44585348824" state="rrrry"/>
   </tlLogic>
   <tlLogic id="1000099551" offset="0" programID="0" type="static">
      <phase duration="13.5199110473" state="G"/>
      <phase duration="2.8463997554" state="y"/>
   </tlLogic>
   <tlLogic id="1000099553" offset="0" programID="0" type="static">
      <phase duration="7.58306854308" state="Gr"/>
      <phase duration="9.62976957045" state="yr"/>
      <phase duration="7.58306854308" state="rG"/>
      <phase duration="9.62976957045" state="ry"/>
   </tlLogic>
   <tlLogic id="1000099576" offset="0" programID="0" type="static">
      <phase duration="16.8181758959" state="Grrrr"/>
      <phase duration="2.15081816911" state="yrrrr"/>
      <phase duration="16.8181758959" state="rGGrr"/>
      <phase duration="2.15081816911" state="ryyrr"/>
      <phase duration="16.8181758959" state="rrrGG"/>
      <phase duration="2.15081816911" state="rrryy"/>
   </tlLogic>
   <tlLogic id="1000099591" offset="0" programID="0" type="static">
      <phase duration="28.5176945102" state="GGrr"/>
      <phase duration="8.82347685233" state="yyrr"/>
      <phase duration="28.5176945102" state="rrGG"/>
      <phase duration="8.82347685233" state="rryy"/>
   </tlLogic>
   <tlLogic id="1000099607" offset="0" programID="0" type="static">
      <phase duration="19.5417755259" state="GGr"/>
      <phase duration="1.57558193123" state="yyr"/>
      <phase duration="19.5417755259" state="rrG"/>
      <phase duration="1.57558193123" state="rry"/>
   </tlLogic>
   <tlLogic id="1000099650" offset="0" programID="0" type="static">
      <phase duration="16.7415520843" state="G"/>
      <phase duration="9.73087363588" state="y"/>
   </tlLogic>
   <tlLogic id="1000099724" offset="0" programID="0" type="static">
      <phase duration="9.57004112903" state="Grrr"/>
      <phase duration="9.1627917451" state="yrrr"/>
      <phase duration="9.57004112903" state="rGGG"/>
      <phase duration="9.1627917451" state="ryyy"/>
   </tlLogic>
   <tlLogic id="1000099741" offset="0" programID="0" type="static">
      <phase duration="30.4654570029" state="GGrr"/>
      <phase duration="6.84432930719" state="yyrr"/>
      <phase duration="30.4654570029" state="rrGG"/>
      <phase duration="6.84432930719" state="rryy"/>
   </tlLogic>
   <tlLogic id="1000099788" offset="0" programID="0" type="static">
      <phase duration="19.4868089839" state="GGrr"/>
      <phase duration="9.91649149882" state="yyrr"/>
      <phase duration="19.4868089839" state="rrGG"/>
      <phase duration="9.91649149882" state="rryy"/>
   </tlLogic>
   <tlLogic id="1012321567" offset="0" programID="0" type="static">
      <phase duration="21.8926349793" state="Gr"/>
      <phase duration="7.46108037556" state="yr"/>
      <phase duration="21.8926349793" state="rG"/>
      <phase duration="7.46108037556" state="ry"/>
   </tlLogic>
   <tlLogic id="1012321573" offset="0" programID="0" type="static">
      <phase duration="32.0262299436" state="Gr"/>
      <phase duration="6.91261045174" state="yr"/>
      <phase duration="32.0262299436" state="rG"/>
      <phase duration="6.91261045174" state="ry"/>
   </tlLogic>
   <tlLogic id="1012321580" offset="0" programID="0" type="static">
      <phase duration="26.6495117901" state="Gr"/>
      <phase duration="8.92266950677" state="yr"/>
      <phase duration="26.6495117901" state="rG"/>
      <phase duration="8.92266950677" state="ry"/>
   </tlLogic>
   <tlLogic id="1012326820" offset="0" programID="0" type="static">
      <phase duration="7.617832545" state="G"/>
      <phase duration="10.0" state="y"/>
   </tlLogic>
   <tlLogic id="1028832186" offset="0" programID="0" type="static"/>
   <tlLogic id="1028832536" offset="0" programID="0" type="static"/>
   <tlLogic id="1037290822" offset="0" programID="0" type="static">
      <phase duration="9.02257296396" state="GGrr"/>
      <phase duration="3.96602445319" state="yyrr"/>
      <phase duration="9.02257296396" state="rrGG"/>
      <phase duration="3.96602445319" state="rryy"/>
   </tlLogic>
   <tlLogic id="1037290889" offset="0" programID="0" type="static">
      <phase duration="7.22173383361" state="GGrr"/>
      <phase duration="4.7378138254" state="yyrr"/>
      <phase duration="7.22173383361" state="rrGG"/>
      <phase duration="4.7378138254" state="rryy"/>
   </tlLogic>
   <tlLogic id="1037290915" offset="0" programID="0" type="static">
      <phase duration="31.5599588186" state="GGrrr"/>
      <phase duration="4.93338644588" state="yyrrr"/>
      <phase duration="31.5599588186" state="rrGGG"/>
      <phase duration="4.93338644588" state="rryyy"/>
   </tlLogic>
   <tlLogic id="1037290944" offset="0" programID="0" type="static">
      <phase duration="24.4532106719" state="G"/>
      <phase duration="7.23072818331" state="y"/>
   </tlLogic>
   <tlLogic id="1040964328" offset="0" programID="0" type="static">
      <phase duration="11.8830245345" state="Gr"/>
      <phase duration="6.19941229345" state="yr"/>
      <phase duration="11.8830245345" state="rG"/>
      <phase duration="6.19941229345" state="ry"/>
   </tlLogic>
   <tlLogic id="1045044692" offset="0" programID="0" type="static">
      <phase duration="20.0387255493" state="Gr"/>
      <phase duration="4.92297964856" state="yr"/>
      <phase duration="20.0387255493" state="rG"/>
      <phase duration="4.92297964856" state="ry"/>
   </tlLogic>
   <tlLogic id="1045044715" offset="0" programID="0" type="static">
      <phase duration="25.1281884297" state="Gr"/>
      <phase duration="4.08572572809" state="yr"/>
      <phase duration="25.1281884297" state="rG"/>
      <phase duration="4.08572572809" state="ry"/>
   </tlLogic>
   <tlLogic id="1045044803" offset="0" programID="0" type="static">
      <phase duration="17.7170498672" state="Gr"/>
      <phase duration="1.0" state="yr"/>
      <phase duration="17.7170498672" state="rG"/>
      <phase duration="1.0" state="ry"/>
   </tlLogic>
   <tlLogic id="1045044863" offset="0" programID="0" type="static">
      <phase duration="27.300461728" state="G"/>
      <phase duration="5.54187264658" state="y"/>
   </tlLogic>
   <tlLogic id="1123630986" offset="0" programID="0" type="static">
      <phase duration="6.9137703789" state="G"/>
      <phase duration="8.74901733989" state="y"/>
   </tlLogic>
   <tlLogic id="1150667539" offset="0" programID="0" type="static">
      <phase duration="11.714000751" state="G"/>
      <phase duration="9.17615094008" state="y"/>
   </tlLogic>
   <tlLogic id="1150667540" offset="0" programID="0" type="static">
      <phase duration="25.9331938069" state="G"/>
      <phase duration="6.72560242961" state="y"/>
   </tlLogic>
   <tlLogic id="1150667552" offset="0" programID="0" type="static">
      <phase duration="21.4819226301" state="Gr"/>
      <phase duration="8.37748089249" state="yr"/>
      <phase duration="21.4819226301" state="rG"/>
      <phase duration="8.37748089249" state="ry"/>
   </tlLogic>
   <tlLogic id="1150667555" offset="0" programID="0" type="static">
      <phase duration="5.88587115882" state="Gr"/>
      <phase duration="9.20533530655" state="yr"/>
      <phase duration="5.88587115882" state="rG"/>
      <phase duration="9.20533530655" state="ry"/>
   </tlLogic>
   <tlLogic id="1150667571" offset="0" programID="0" type="static">
      <phase duration="30.0447202619" state="G"/>
      <phase duration="6.65612913639" state="y"/>
   </tlLogic>
   <tlLogic id="1150667586" offset="0" programID="0" type="static">
      <phase duration="11.8203080724" state="G"/>
      <phase duration="10.0" state="y"/>
   </tlLogic>
   <tlLogic id="1150667604" offset="0" programID="0" type="static">
      <phase duration="28.6751528218" state="Gr"/>
      <phase duration="4.9975064323" state="yr"/>
      <phase duration="28.6751528218" state="rG"/>
      <phase duration="4.9975064323" state="ry"/>
   </tlLogic>
   <tlLogic id="1150667622" offset="0" programID="0" type="static">
      <phase duration="18.2072671352" state="G"/>
      <phase duration="9.87821451219" state="y"/>
   </tlLogic>
   <tlLogic id="1156723834" offset="0" programID="0" type="static">
      <phase duration="23.2700032758" state="G"/>
      <phase duration="9.48262682198" state="y"/>
   </tlLogic>
   <tlLogic id="1200892960" offset="0" programID="0" type="static">
      <phase duration="16.5830863367" state="Gr"/>
      <phase duration="5.84243230845" state="yr"/>
      <phase duration="16.5830863367" state="rG"/>
      <phase duration="5.84243230845" state="ry"/>
   </tlLogic>
   <tlLogic id="1201745377" offset="0" programID="0" type="static">
      <phase duration="13.9620841859" state="G"/>
      <phase duration="9.75209772163" state="y"/>
   </tlLogic>
   <tlLogic id="1201745399" offset="0" programID="0" type="static"/>
   <tlLogic id="1211136595" offset="0" programID="0" type="static">
      <phase duration="34.0818726192" state="G"/>
      <phase duration="8.34104768297" state="y"/>
   </tlLogic>
   <tlLogic id="1220020592" offset="0" programID="0" type="static">
      <phase duration="38.0192989346" state="Gr"/>
      <phase duration="9.70672536696" state="yr"/>
      <phase duration="38.0192989346" state="rG"/>
      <phase duration="9.70672536696" state="ry"/>
   </tlLogic>
   <tlLogic id="1220020607" offset="0" programID="0" type="static">
      <phase duration="19.2603952152" state="GGrr"/>
      <phase duration="6.85216997035" state="yyrr"/>
      <phase duration="19.2603952152" state="rrGG"/>
      <phase duration="6.85216997035" state="rryy"/>
   </tlLogic>
   <tlLogic id="1220020656" offset="0" programID="0" type="static">
      <phase duration="12.9518871211" state="GGrr"/>
      <phase duration="9.84762179843" state="yyrr"/>
      <phase duration="12.9518871211" state="rrGG"/>
      <phase duration="9.84762179843" state="rryy"/>
   </tlLogic>
   <tlLogic id="1220020679" offset="0" programID="0" type="static">
      <phase duration="26.5975510229" state="GGrr"/>
      <phase duration="2.86064288655" state="yyrr"/>
      <phase duration="26.5975510229" state="rrGG"/>
      <phase duration="2.86064288655" state="rryy"/>
   </tlLogic>
   <tlLogic id="1229522509" offset="0" programID="0" type="static">
      <phase duration="17.1458923727" state="G"/>
      <phase duration="4.0" state="y"/>
   </tlLogic>
   <tlLogic id="1229522552" offset="0" programID="0" type="static">
      <phase duration="10.3910201073" state="G"/>
      <phase duration="6.3472303856" state="y"/>
   </tlLogic>
   <tlLogic id="1229522554" offset="0" programID="0" type="static">
      <phase duration="9.33838317969" state="G"/>
      <phase duration="3.3225673475" state="y"/>
   </tlLogic>
   <tlLogic id="1252285093" offset="0" programID="0" type="static">
      <phase duration="19.1258864177" state="Gr"/>
      <phase duration="9.96510602712" state="yr"/>
      <phase duration="19.1258864177" state="rG"/>
      <phase duration="9.96510602712" state="ry"/>
   </tlLogic>
   <tlLogic id="1252285133" offset="0" programID="0" type="static">
      <phase duration="23.7182157212" state="Gr"/>
      <phase duration="5.76472649478" state="yr"/>
      <phase duration="23.7182157212" state="rG"/>
      <phase duration="5.76472649478" state="ry"/>
   </tlLogic>
   <tlLogic id="1252285137" offset="0" programID="0" type="static">
      <phase duration="24.5515862132" state="Gr"/>
      <phase duration="9.77561300842" state="yr"/>
      <phase duration="24.5515862132" state="rG"/>
      <phase duration="9.77561300842" state="ry"/>
   </tlLogic>
   <tlLogic id="1252285138" offset="0" programID="0" type="static">
      <phase duration="13.7602201011" state="G"/>
      <phase duration="3.64210788231" state="y"/>
   </tlLogic>
   <tlLogic id="1252285140" offset="0" programID="0" type="static">
      <phase duration="24.5564614273" state="Gr"/>
      <phase duration="5.03154915474" state="yr"/>
      <phase duration="24.5564614273" state="rG"/>
      <phase duration="5.03154915474" state="ry"/>
   </tlLogic>
   <tlLogic id="1271504738" offset="0" programID="0" type="static">
      <phase duration="15.9997488531" state="Gr"/>
      <phase duration="4.66333003191" state="yr"/>
      <phase duration="15.9997488531" state="rG"/>
      <phase duration="4.66333003191" state="ry"/>
   </tlLogic>
   <tlLogic id="1271504743" offset="0" programID="0" type="static">
      <phase duration="28.9645500292" state="G"/>
      <phase duration="7.80493491773" state="y"/>
   </tlLogic>
   <tlLogic id="1271504747" offset="0" programID="0" type="static">
      <phase duration="17.7114128173" state="Gr"/>
      <phase duration="10.0" state="yr"/>
      <phase duration="17.7114128173" state="rG"/>
      <phase duration="10.0" state="ry"/>
   </tlLogic>
   <tlLogic id="1271504748" offset="0" programID="0" type="static">
      <phase duration="18.9132106004" state="Gr"/>
      <phase duration="9.32671423495" state="yr"/>
      <phase duration="18.9132106004" state="rG"/>
      <phase duration="9.32671423495" state="ry"/>
   </tlLogic>
   <tlLogic id="1271504750" offset="0" programID="0" type="static">
      <phase duration="12.86987087" state="G"/>
      <phase duration="10.0" state="y"/>
   </tlLogic>
   <tlLogic id="1271504755" offset="0" programID="0" type="static">
      <phase duration="33.0" state="GGrrr"/>
      <phase duration="2.5669026787" state="yyrrr"/>
      <phase duration="33.0" state="rrGrr"/>
      <phase duration="2.5669026787" state="rryrr"/>
      <phase duration="33.0" state="rrrGG"/>
      <phase duration="2.5669026787" state="rrryy"/>
   </tlLogic>
   <tlLogic id="1271504758" offset="0" programID="0" type="static">
      <phase duration="32.1016490304" state="G"/>
      <phase duration="4.95117611117" state="y"/>
   </tlLogic>
   <tlLogic id="1271504762" offset="0" programID="0" type="static">
      <phase duration="25.3443352481" state="G"/>
      <phase duration="9.28983083023" state="y"/>
   </tlLogic>
   <tlLogic id="1271504766" offset="0" programID="0" type="static">
      <phase duration="9.76702404775" state="Gr"/>
      <phase duration="6.63167387528" state="yr"/>
      <phase duration="9.76702404775" state="rG"/>
      <phase duration="6.63167387528" state="ry"/>
   </tlLogic>
   <tlLogic id="1271504767" offset="0" programID="0" type="static">
      <phase duration="13.8857592709" state="G"/>
      <phase duration="4.36007492982" state="y"/>
   </tlLogic>
   <tlLogic id="1271504768" offset="0" programID="0" type="static">
      <phase duration="17.3582883602" state="Gr"/>
      <phase duration="9.34541223991" state="yr"/>
      <phase duration="17.3582883602" state="rG"/>
      <phase duration="9.34541223991" state="ry"/>
   </tlLogic>
   <tlLogic id="1271504773" offset="0" programID="0" type="static">
      <phase duration="24.5939869342" state="GGrrr"/>
      <phase duration="3.85434556792" state="yyrrr"/>
      <phase duration="24.5939869342" state="rrGrr"/>
      <phase duration="3.85434556792" state="rryrr"/>
      <phase duration="24.5939869342" state="rrrGG"/>
      <phase duration="3.85434556792" state="rrryy"/>
   </tlLogic>
   <tlLogic id="1271504774" offset="0" programID="0" type="static">
      <phase duration="13.3602322505" state="G"/>
      <phase duration="5.72693486921" state="y"/>
   </tlLogic>
   <tlLogic id="1271504778" offset="0" programID="0" type="static">
      <phase duration="21.5676323474" state="G"/>
      <phase duration="4.7339730962" state="y"/>
   </tlLogic>
   <tlLogic id="1271504781" offset="0" programID="0" type="static">
      <phase duration="38.7505285927" state="GGrrr"/>
      <phase duration="6.37850064139" state="yyrrr"/>
      <phase duration="38.7505285927" state="rrGrr"/>
      <phase duration="6.37850064139" state="rryrr"/>
      <phase duration="38.7505285927" state="rrrGG"/>
      <phase duration="6.37850064139" state="rrryy"/>
   </tlLogic>
   <tlLogic id="1271504788" offset="0" programID="0" type="static">
      <phase duration="21.4184566272" state="GGrrr"/>
      <phase duration="5.75762784827" state="yyrrr"/>
      <phase duration="21.4184566272" state="rrGGG"/>
      <phase duration="5.75762784827" state="rryyy"/>
   </tlLogic>
   <tlLogic id="1271504795" offset="0" programID="0" type="static">
      <phase duration="22.6816996977" state="G"/>
      <phase duration="2.97196035785" state="y"/>
   </tlLogic>
   <tlLogic id="1271504797" offset="0" programID="0" type="static">
      <phase duration="27.9446708151" state="Gr"/>
      <phase duration="7.16328796758" state="yr"/>
      <phase duration="27.9446708151" state="rG"/>
      <phase duration="7.16328796758" state="ry"/>
   </tlLogic>
   <tlLogic id="1271504801" offset="0" programID="0" type="static">
      <phase duration="12.2247967427" state="G"/>
      <phase duration="4.21867881366" state="y"/>
   </tlLogic>
   <tlLogic id="1271504812" offset="0" programID="0" type="static">
      <phase duration="14.009877162" state="G"/>
      <phase duration="8.3218999196" state="y"/>
   </tlLogic>
   <tlLogic id="1271504815" offset="0" programID="0" type="static">
      <phase duration="16.2700549258" state="Gr"/>
      <phase duration="5.1673920932" state="yr"/>
      <phase duration="16.2700549258" state="rG"/>
      <phase duration="5.1673920932" state="ry"/>
   </tlLogic>
   <tlLogic id="1271504816" offset="0" programID="0" type="static">
      <phase duration="22.804653228" state="G"/>
      <phase duration="9.26683620629" state="y"/>
   </tlLogic>
   <tlLogic id="1271504817" offset="0" programID="0" type="static">
      <phase duration="30.6086917658" state="G"/>
      <phase duration="7.89687603782" state="y"/>
   </tlLogic>
   <tlLogic id="1271504822" offset="0" programID="0" type="static">
      <phase duration="20.2900118191" state="G"/>
      <phase duration="9.1602965819" state="y"/>
   </tlLogic>
   <tlLogic id="1271504823" offset="0" programID="0" type="static">
      <phase duration="40.0" state="G"/>
      <phase duration="8.14375968957" state="y"/>
   </tlLogic>
   <tlLogic id="1271504827" offset="0" programID="0" type="static">
      <phase duration="16.5141752805" state="Gr"/>
      <phase duration="6.93486907709" state="yr"/>
      <phase duration="16.5141752805" state="rG"/>
      <phase duration="6.93486907709" state="ry"/>
   </tlLogic>
   <tlLogic id="1271504828" offset="0" programID="0" type="static">
      <phase duration="31.8767812649" state="GGrrr"/>
      <phase duration="9.99453179285" state="yyrrr"/>
      <phase duration="31.8767812649" state="rrGrr"/>
      <phase duration="9.99453179285" state="rryrr"/>
      <phase duration="31.8767812649" state="rrrGG"/>
      <phase duration="9.99453179285" state="rrryy"/>
   </tlLogic>
   <tlLogic id="1271504829" offset="0" programID="0" type="static">
      <phase duration="32.1741695045" state="Gr"/>
      <phase duration="9.71085189986" state="yr"/>
      <phase duration="32.1741695045" state="rG"/>
      <phase duration="9.71085189986" state="ry"/>
   </tlLogic>
   <tlLogic id="1271504832" offset="0" programID="0" type="static">
      <phase duration="11.7144014742" state="Gr"/>
      <phase duration="9.15930918656" state="yr"/>
      <phase duration="11.7144014742" state="rG"/>
      <phase duration="9.15930918656" state="ry"/>
   </tlLogic>
   <tlLogic id="1271504834" offset="0" programID="0" type="static">
      <phase duration="24.1323623913" state="G"/>
      <phase duration="7.0" state="y"/>
   </tlLogic>
   <tlLogic id="1271504843" offset="0" programID="0" type="static">
      <phase duration="15.1609175214" state="Gr"/>
      <phase duration="7.92740251809" state="yr"/>
      <phase duration="15.1609175214" state="rG"/>
      <phase duration="7.92740251809" state="ry"/>
   </tlLogic>
   <tlLogic id="1271504844" offset="0" programID="0" type="static">
      <phase duration="4.51794443144" state="G"/>
      <phase duration="9.56187602001" state="y"/>
   </tlLogic>
   <tlLogic id="1271504849" offset="0" programID="0" type="static">
      <phase duration="15.6165401009" state="GGrrr"/>
      <phase duration="7.55100238823" state="yyrrr"/>
      <phase duration="15.6165401009" state="rrGrr"/>
      <phase duration="7.55100238823" state="rryrr"/>
      <phase duration="15.6165401009" state="rrrGG"/>
      <phase duration="7.55100238823" state="rrryy"/>
   </tlLogic>
   <tlLogic id="1271504855" offset="0" programID="0" type="static">
      <phase duration="23.3841904059" state="Gr"/>
      <phase duration="7.88972582521" state="yr"/>
      <phase duration="23.3841904059" state="rG"/>
      <phase duration="7.88972582521" state="ry"/>
   </tlLogic>
   <tlLogic id="1271504858" offset="0" programID="0" type="static">
      <phase duration="34.1776247562" state="G"/>
      <phase duration="7.75823062955" state="y"/>
   </tlLogic>
   <tlLogic id="1271504861" offset="0" programID="0" type="static">
      <phase duration="36.4857585486" state="G"/>
      <phase duration="10.0" state="y"/>
   </tlLogic>
   <tlLogic id="1271504863" offset="0" programID="0" type="static">
      <phase duration="24.851530703" state="G"/>
      <phase duration="8.04319503455" state="y"/>
   </tlLogic>
   <tlLogic id="1271504866" offset="0" programID="0" type="static">
      <phase duration="28.2753823333" state="G"/>
      <phase duration="8.27910668665" state="y"/>
   </tlLogic>
   <tlLogic id="1271504871" offset="0" programID="0" type="static">
      <phase duration="12.1360447971" state="GGrr"/>
      <phase duration="10.0" state="yyrr"/>
      <phase duration="12.1360447971" state="rrGG"/>
      <phase duration="10.0" state="rryy"/>
   </tlLogic>
   <tlLogic id="1271504872" offset="0" programID="0" type="static">
      <phase duration="18.3138880357" state="G"/>
      <phase duration="5.72804569814" state="y"/>
   </tlLogic>
   <tlLogic id="1271504881" offset="0" programID="0" type="static">
      <phase duration="19.6838091973" state="GGrrr"/>
      <phase duration="6.58490557301" state="yyrrr"/>
      <phase duration="19.6838091973" state="rrGrr"/>
      <phase duration="6.58490557301" state="rryrr"/>
      <phase duration="19.6838091973" state="rrrGG"/>
      <phase duration="6.58490557301" state="rrryy"/>
   </tlLogic>
   <tlLogic id="1271504883" offset="0" programID="0" type="static">
      <phase duration="23.287644997" state="GGrrr"/>
      <phase duration="5.80201858631" state="yyrrr"/>
      <phase duration="23.287644997" state="rrGrr"/>
      <phase duration="5.80201858631" state="rryrr"/>
      <phase duration="23.287644997" state="rrrGG"/>
      <phase duration="5.80201858631" state="rrryy"/>
   </tlLogic>
   <tlLogic id="1271504888" offset="0" programID="0" type="static">
      <phase duration="3.28659193355" state="G"/>
      <phase duration="1.82086246328" state="y"/>
   </tlLogic>
   <tlLogic id="1271504889" offset="0" programID="0" type="static">
      <phase duration="28.2296908419" state="Gr"/>
      <phase duration="5.76158552434" state="yr"/>
      <phase duration="28.2296908419" state="rG"/>
      <phase duration="5.76158552434" state="ry"/>
   </tlLogic>
   <tlLogic id="1271504891" offset="0" programID="0" type="static">
      <phase duration="25.3644701796" state="G"/>
      <phase duration="8.13274177453" state="y"/>
   </tlLogic>
   <tlLogic id="1271504898" offset="0" programID="0" type="static">
      <phase duration="26.7396308187" state="Gr"/>
      <phase duration="6.30633949017" state="yr"/>
      <phase duration="26.7396308187" state="rG"/>
      <phase duration="6.30633949017" state="ry"/>
   </tlLogic>
   <tlLogic id="1271504899" offset="0" programID="0" type="static">
      <phase duration="24.0242019064" state="G"/>
      <phase duration="8.17297962232" state="y"/>
   </tlLogic>
   <tlLogic id="1271504901" offset="0" programID="0" type="static">
      <phase duration="26.1060383499" state="GGrrr"/>
      <phase duration="6.17265409956" state="yyrrr"/>
      <phase duration="26.1060383499" state="rrGrr"/>
      <phase duration="6.17265409956" state="rryrr"/>
      <phase duration="26.1060383499" state="rrrGG"/>
      <phase duration="6.17265409956" state="rrryy"/>
   </tlLogic>
   <tlLogic id="1271504902" offset="0" programID="0" type="static">
      <phase duration="15.3711217763" state="Gr"/>
      <phase duration="6.99766583865" state="yr"/>
      <phase duration="15.3711217763" state="rG"/>
      <phase duration="6.99766583865" state="ry"/>
   </tlLogic>
   <tlLogic id="1271504904" offset="0" programID="0" type="static">
      <phase duration="31.9665084827" state="Grr"/>
      <phase duration="2.65895747021" state="yrr"/>
      <phase duration="31.9665084827" state="rGG"/>
      <phase duration="2.65895747021" state="ryy"/>
   </tlLogic>
   <tlLogic id="1271504905" offset="0" programID="0" type="static">
      <phase duration="39.7151743209" state="G"/>
      <phase duration="8.72651399916" state="y"/>
   </tlLogic>
   <tlLogic id="1271504907" offset="0" programID="0" type="static">
      <phase duration="35.6687549523" state="G"/>
      <phase duration="4.0" state="y"/>
   </tlLogic>
   <tlLogic id="1271504910" offset="0" programID="0" type="static">
      <phase duration="20.2515005971" state="Gr"/>
      <phase duration="9.79546045622" state="yr"/>
      <phase duration="20.2515005971" state="rG"/>
      <phase duration="9.79546045622" state="ry"/>
   </tlLogic>
   <tlLogic id="1271504913" offset="0" programID="0" type="static">
      <phase duration="37.9329745383" state="GGrrr"/>
      <phase duration="4.9203894662" state="yyrrr"/>
      <phase duration="37.9329745383" state="rrGGr"/>
      <phase duration="4.9203894662" state="rryyr"/>
      <phase duration="37.9329745383" state="rrrrG"/>
      <phase duration="4.9203894662" state="rrrry"/>
   </tlLogic>
   <tlLogic id="1271504918" offset="0" programID="0" type="static">
      <phase duration="19.8998523889" state="G"/>
      <phase duration="7.71859914182" state="y"/>
   </tlLogic>
   <tlLogic id="1299369678" offset="0" programID="0" type="static">
      <phase duration="28.5057875904" state="G"/>
      <phase duration="9.66858452057" state="y"/>
   </tlLogic>
   <tlLogic id="1299369684" offset="0" programID="0" type="static">
      <phase duration="27.9834144727" state="G"/>
      <phase duration="4.22612704442" state="y"/>
   </tlLogic>
   <tlLogic id="1299369691" offset="0" programID="0" type="static">
      <phase duration="31.2563544661" state="Gr"/>
      <phase duration="6.58349536535" state="yr"/>
      <phase duration="31.2563544661" state="rG"/>
      <phase duration="6.58349536535" state="ry"/>
   </tlLogic>
   <tlLogic id="1299369699" offset="0" programID="0" type="static">
      <phase duration="23.1772588054" state="G"/>
      <phase duration="9.93418618905" state="y"/>
   </tlLogic>
   <tlLogic id="1299369701" offset="0" programID="0" type="static">
      <phase duration="16.7180977172" state="GGrrr"/>
      <phase duration="6.35484153978" state="yyrrr"/>
      <phase duration="16.7180977172" state="rrGrr"/>
      <phase duration="6.35484153978" state="rryrr"/>
      <phase duration="16.7180977172" state="rrrGG"/>
      <phase duration="6.35484153978" state="rrryy"/>
   </tlLogic>
   <tlLogic id="1312440651" offset="0" programID="0" type="static">
      <phase duration="24.8072066438" state="G"/>
      <phase duration="8.55128070235" state="y"/>
   </tlLogic>
   <tlLogic id="1312812204" offset="0" programID="0" type="static">
      <phase duration="30.6410737843" state="G"/>
      <phase duration="2.31198637518" state="y"/>
   </tlLogic>
   <tlLogic id="1353566368" offset="0" programID="0" type="static">
      <phase duration="29.1467957374" state="G"/>
      <phase duration="5.93306397144" state="y"/>
   </tlLogic>
   <tlLogic id="1353566371" offset="0" programID="0" type="static">
      <phase duration="28.8405942272" state="G"/>
      <phase duration="10.0" state="y"/>
   </tlLogic>
   <tlLogic id="1360932319" offset="0" programID="0" type="static"/>
   <tlLogic id="1366801174" offset="0" programID="0" type="static">
      <phase duration="7.40669656581" state="G"/>
      <phase duration="5.48930595645" state="y"/>
   </tlLogic>
   <tlLogic id="1366801190" offset="0" programID="0" type="static"/>
   <tlLogic id="1366801204" offset="0" programID="0" type="static">
      <phase duration="25.8652262311" state="G"/>
      <phase duration="4.52425679678" state="y"/>
   </tlLogic>
   <tlLogic id="1366801221" offset="0" programID="0" type="static">
      <phase duration="15.3635691609" state="Gr"/>
      <phase duration="6.21117997478" state="yr"/>
      <phase duration="15.3635691609" state="rG"/>
      <phase duration="6.21117997478" state="ry"/>
   </tlLogic>
   <tlLogic id="1492679675" offset="0" programID="0" type="static">
      <phase duration="12.7900339598" state="Gr"/>
      <phase duration="5.94746916953" state="yr"/>
      <phase duration="12.7900339598" state="rG"/>
      <phase duration="5.94746916953" state="ry"/>
   </tlLogic>
   <tlLogic id="1492679678" offset="0" programID="0" type="static">
      <phase duration="26.3175693479" state="Gr"/>
      <phase duration="3.22360931953" state="yr"/>
      <phase duration="26.3175693479" state="rG"/>