<?xml version="1.0" ?>
<tlLogics>
   <tlLogic id="1000099468" offset="0" programID="0" type="static">
      <phase duration="20.7215326858" state="G"/>
      <phase duration="7.52433922132" state="y"/>
   </tlLogic>
   <tlLogic id="1000099475" offset="0" programID="0" type="static">
      <phase duration="12.9228709809" state="GG"/>
      <phase duration="5.59405892419" state="yy"/>
   </tlLogic>
   <tlLogic id="1000099553" offset="0" programID="0" type="static">
      <phase duration="17.6805716549" state="Gr"/>
      <phase duration="3.58463024645" state="yr"/>
      <phase duration="17.6805716549" state="rG"/>
      <phase duration="3.58463024645" state="ry"/>
   </tlLogic>
   <tlLogic id="1000099576" offset="0" programID="0" type="static">
      <phase duration="26.923123203" state="Grrrr"/>
      <phase duration="9.20908217726" state="yrrrr"/>
      <phase duration="26.923123203" state="rGGrr"/>
      <phase duration="9.20908217726" state="ryyrr"/>
      <phase duration="26.923123203" state="rrrGG"/>
      <phase duration="9.20908217726" state="rrryy"/>
   </tlLogic>
   <tlLogic id="1000099650" offset="0" programID="0" type="static">
      <phase duration="21.215483423" state="G"/>
      <phase duration="7.51919728673" state="y"/>
   </tlLogic>
   <tlLogic id="1000099741" offset="0" programID="0" type="static">
      <phase duration="15.196633755" state="GGrr"/>
      <phase duration="3.51532092464" state="yyrr"/>
      <phase duration="15.196633755" state="rrGG"/>
      <phase duration="3.51532092464" state="rryy"/>
   </tlLogic>
   <tlLogic id="1012321573" offset="0" programID="0" type="static">
      <phase duration="11.9730170261" state="Gr"/>
      <phase duration="7.00151566611" state="yr"/>
      <phase duration="11.9730170261" state="rG"/>
      <phase duration="7.00151566611" state="ry"/>
   </tlLogic>
   <tlLogic id="1012321580" offset="0" programID="0" type="static">
      <phase duration="28.2692919527" state="Gr"/>
      <phase duration="2.81885195521" state="yr"/>
      <phase duration="28.2692919527" state="rG"/>
      <phase duration="2.81885195521" state="ry"/>
   </tlLogic>
   <tlLogic id="1012326820" offset="0" programID="0" type="static">
      <phase duration="11.8729768938" state="G"/>
      <phase duration="5.80981174519" state="y"/>
   </tlLogic>
   <tlLogic id="1028832186" offset="0" programID="0" type="static"/>
   <tlLogic id="1028832536" offset="0" programID="0" type="static"/>
   <tlLogic id="1037290808" offset="0" programID="0" type="static">
      <phase duration="28.3022095207" state="GGGrrrrrr"/>
      <phase duration="6.95360258971" state="yyyrrrrrr"/>
      <phase duration="28.3022095207" state="rrrGGGrrr"/>
      <phase duration="6.95360258971" state="rrryyyrrr"/>
      <phase duration="28.3022095207" state="rrrrrrGGG"/>
      <phase duration="6.95360258971" state="rrrrrryyy"/>
   </tlLogic>
   <tlLogic id="1040964328" offset="0" programID="0" type="static">
      <phase duration="18.4722825083" state="Gr"/>
      <phase duration="4.75113850691" state="yr"/>
      <phase duration="18.4722825083" state="rG"/>
      <phase duration="4.75113850691" state="ry"/>
   </tlLogic>
   <tlLogic id="1040964333" offset="0" programID="0" type="static">
      <phase duration="26.6427558964" state="Gr"/>
      <phase duration="2.83067746919" state="yr"/>
      <phase duration="26.6427558964" state="rG"/>
      <phase duration="2.83067746919" state="ry"/>
   </tlLogic>
   <tlLogic id="1045044715" offset="0" programID="0" type="static">
      <phase duration="22.5253136581" state="Gr"/>
      <phase duration="4.73226760825" state="yr"/>
      <phase duration="22.5253136581" state="rG"/>
      <phase duration="4.73226760825" state="ry"/>
   </tlLogic>
   <tlLogic id="1045044750" offset="0" programID="0" type="static">
      <phase duration="37.2895481859" state="Gr"/>
      <phase duration="5.52677149675" state="yr"/>
      <phase duration="37.2895481859" state="rG"/>
      <phase duration="5.52677149675" state="ry"/>
   </tlLogic>
   <tlLogic id="1045044803" offset="0" programID="0" type="static">
      <phase duration="24.416542519" state="Gr"/>
      <phase duration="6.41446238146" state="yr"/>
      <phase duration="24.416542519" state="rG"/>
      <phase duration="6.41446238146" state="ry"/>
   </tlLogic>
   <tlLogic id="1045044863" offset="0" programID="0" type="static">
      <phase duration="20.3854604671" state="G"/>
      <phase duration="3.52699680784" state="y"/>
   </tlLogic>
   <tlLogic id="1062771951" offset="0" programID="0" type="static">
      <phase duration="13.5485004661" state="GGrr"/>
      <phase duration="8.83916337682" state="yyrr"/>
      <phase duration="13.5485004661" state="rrGG"/>
      <phase duration="8.83916337682" state="rryy"/>
   </tlLogic>
   <tlLogic id="1062771990" offset="0" programID="0" type="static">
      <phase duration="29.9475916939" state="G"/>
      <phase duration="3.67160963627" state="y"/>
   </tlLogic>
   <tlLogic id="1109589987" offset="0" programID="0" type="static">
      <phase duration="31.3279861776" state="GGrr"/>
      <phase duration="7.82336683275" state="yyrr"/>
      <phase duration="31.3279861776" state="rrGG"/>
      <phase duration="7.82336683275" state="rryy"/>
   </tlLogic>
   <tlLogic id="1125127500" offset="0" programID="0" type="static">
      <phase duration="12.1883562624" state="GG"/>
      <phase duration="8.5665462229" state="yy"/>
   </tlLogic>
   <tlLogic id="1149210260" offset="0" programID="0" type="static">
      <phase duration="30.6968424542" state="Gr"/>
      <phase duration="6.33036742152" state="yr"/>
      <phase duration="30.6968424542" state="rG"/>
      <phase duration="6.33036742152" state="ry"/>
   </tlLogic>
   <tlLogic id="1150667552" offset="0" programID="0" type="static">
      <phase duration="25.2639444176" state="Gr"/>
      <phase duration="2.98218626694" state="yr"/>
      <phase duration="25.2639444176" state="rG"/>
      <phase duration="2.98218626694" state="ry"/>
   </tlLogic>
   <tlLogic id="1150667568" offset="0" programID="0" type="static"/>
   <tlLogic id="1150667604" offset="0" programID="0" type="static">
      <phase duration="25.4888984372" state="Gr"/>
      <phase duration="8.61047491878" state="yr"/>
      <phase duration="25.4888984372" state="rG"/>
      <phase duration="8.61047491878" state="ry"/>
   </tlLogic>
   <tlLogic id="1150667618" offset="0" programID="0" type="static">
      <phase duration="25.8321254513" state="G"/>
      <phase duration="5.59971908104" state="y"/>
   </tlLogic>
   <tlLogic id="1156723834" offset="0" programID="0" type="static">
      <phase duration="22.2646944461" state="G"/>
      <phase duration="5.04219846634" state="y"/>
   </tlLogic>
   <tlLogic id="1201745377" offset="0" programID="0" type="static">
      <phase duration="4.63607949631" state="G"/>
      <phase duration="4.74696652028" state="y"/>
   </tlLogic>
   <tlLogic id="1201745399" offset="0" programID="0" type="static"/>
   <tlLogic id="1220020505" offset="0" programID="0" type="static">
      <phase duration="22.0073869085" state="G"/>
      <phase duration="4.15774925949" state="y"/>
   </tlLogic>
   <tlLogic id="1220020630" offset="0" programID="0" type="static">
      <phase duration="24.7331952393" state="Gr"/>
      <phase duration="5.82123388931" state="yr"/>
      <phase duration="24.7331952393" state="rG"/>
      <phase duration="5.82123388931" state="ry"/>
   </tlLogic>
   <tlLogic id="1220020656" offset="0" programID="0" type="static">
      <phase duration="16.3752794285" state="GGrr"/>
      <phase duration="4.74384976821" state="yyrr"/>
      <phase duration="16.3752794285" state="rrGG"/>
      <phase duration="4.74384976821" state="rryy"/>
   </tlLogic>
   <tlLogic id="1220020673" offset="0" programID="0" type="static">
      <phase duration="21.6597218396" state="GGGrrrrrr"/>
      <phase duration="6.97553400168" state="yyyrrrrrr"/>
      <phase duration="21.6597218396" state="rrrGGGrrr"/>
      <phase duration="6.97553400168" state="rrryyyrrr"/>
      <phase duration="21.6597218396" state="rrrrrrGGG"/>
      <phase duration="6.97553400168" state="rrrrrryyy"/>
   </tlLogic>
   <tlLogic id="1229522462" offset="0" programID="0" type="static">
      <phase duration="21.8819068906" state="G"/>
      <phase duration="5.45019064718" state="y"/>
   </tlLogic>
   <tlLogic id="1229522509" offset="0" programID="0" type="static">
      <phase duration="8.68207477738" state="G"/>
      <phase duration="6.57584568474" state="y"/>
   </tlLogic>
   <tlLogic id="1229522552" offset="0" programID="0" type="static">
      <phase duration="7.87007874014" state="G"/>
      <phase duration="7.00430588193" state="y"/>
   </tlLogic>
   <tlLogic id="1252285079" offset="0" programID="0" type="static">
      <phase duration="18.72995728" state="Gr"/>
      <phase duration="4.69913480423" state="yr"/>
      <phase duration="18.72995728" state="rG"/>
      <phase duration="4.69913480423" state="ry"/>
   </tlLogic>
   <tlLogic id="1252285082" offset="0" programID="0" type="static">
      <phase duration="33.028339142" state="G"/>
      <phase duration="4.25781846561" state="y"/>
   </tlLogic>
   <tlLogic id="1252285087" offset="0" programID="0" type="static"/>
   <tlLogic id="1252285093" offset="0" programID="0" type="static">
      <phase duration="20.9244431157" state="Gr"/>
      <phase duration="4.38749765277" state="yr"/>
      <phase duration="20.9244431157" state="rG"/>
      <phase duration="4.38749765277" state="ry"/>
   </tlLogic>
   <tlLogic id="1252285105" offset="0" programID="0" type="static">
      <phase duration="24.785440502" state="G"/>
      <phase duration="5.0249569625" state="y"/>
   </tlLogic>
   <tlLogic id="1252285107" offset="0" programID="0" type="static">
      <phase duration="25.7633421902" state="G"/>
      <phase duration="6.94587634603" state="y"/>
   </tlLogic>
   <tlLogic id="1252285133" offset="0" programID="0" type="static">
      <phase duration="25.3358657845" state="Gr"/>
      <phase duration="9.19687833874" state="yr"/>
      <phase duration="25.3358657845" state="rG"/>
      <phase duration="9.19687833874" state="ry"/>
   </tlLogic>
   <tlLogic id="1252285137" offset="0" programID="0" type="static">
      <phase duration="25.0107741975" state="Gr"/>
      <phase duration="8.12489426836" state="yr"/>
      <phase duration="25.0107741975" state="rG"/>
      <phase duration="8.12489426836" state="ry"/>
   </tlLogic>
   <tlLogic id="1252285138" offset="0" programID="0" type="static">
      <phase duration="28.7023346249" state="G"/>
      <phase duration="3.81722813519" state="y"/>
   </tlLogic>
   <tlLogic id="1271504738" offset="0" programID="0" type="static">
      <phase duration="31.493375925" state="Gr"/>
      <phase duration="6.03548047374" state="yr"/>
      <phase duration="31.493375925" state="rG"/>
      <phase duration="6.03548047374" state="ry"/>
   </tlLogic>
   <tlLogic id="1271504743" offset="0" programID="0" type="static">
      <phase duration="27.4002235627" state="G"/>
      <phase duration="5.24760822565" state="y"/>
   </tlLogic>
   <tlLogic id="1271504748" offset="0" programID="0" type="static">
      <phase duration="14.3863856235" state="Gr"/>
      <phase duration="5.33002103113" state="yr"/>
      <phase duration="14.3863856235" state="rG"/>
      <phase duration="5.33002103113" state="ry"/>
   </tlLogic>
   <tlLogic id="1271504750" offset="0" programID="0" type="static">
      <phase duration="23.1312327256" state="G"/>
      <phase duration="7.48769533904" state="y"/>
   </tlLogic>
   <tlLogic id="1271504755" offset="0" programID="0" type="static">
      <phase duration="30.3200161068" state="GGrrr"/>
      <phase duration="7.53282988316" state="yyrrr"/>
      <phase duration="30.3200161068" state="rrGrr"/>
      <phase duration="7.53282988316" state="rryrr"/>
      <phase duration="30.3200161068" state="rrrGG"/>
      <phase duration="7.53282988316" state="rrryy"/>
   </tlLogic>
   <tlLogic id="1271504757" offset="0" programID="0" type="static">
      <phase duration="30.5417061885" state="GGrrr"/>
      <phase duration="4.05204950569" state="yyrrr"/>
      <phase duration="30.5417061885" state="rrGrr"/>
      <phase duration="4.05204950569" state="rryrr"/>
      <phase duration="30.5417061885" state="rrrGG"/>
      <phase duration="4.05204950569" state="rrryy"/>
   </tlLogic>
   <tlLogic id="1271504758" offset="0" programID="0" type="static">
      <phase duration="28.5071241427" state="G"/>
      <phase duration="3.45633167862" state="y"/>
   </tlLogic>
   <tlLogic id="1271504766" offset="0" programID="0" type="static">
      <phase duration="10.6352310039" state="Gr"/>
      <phase duration="4.28506309869" state="yr"/>
      <phase duration="10.6352310039" state="rG"/>
      <phase duration="4.28506309869" state="ry"/>
   </tlLogic>
   <tlLogic id="1271504767" offset="0" programID="0" type="static">
      <phase duration="21.1768930757" state="G"/>
      <phase duration="8.92766954536" state="y"/>
   </tlLogic>
   <tlLogic id="1271504768" offset="0" programID="0" type="static">
      <phase duration="22.1377423889" state="Gr"/>
      <phase duration="7.71474322575" state="yr"/>
      <phase duration="22.1377423889" state="rG"/>
      <phase duration="7.71474322575" state="ry"/>
   </tlLogic>
   <tlLogic id="1271504770" offset="0" programID="0" type="static">
      <phase duration="9.00411021506" state="Gr"/>
      <phase duration="6.96839888904" state="yr"/>
      <phase duration="9.00411021506" state="rG"/>
      <phase duration="6.96839888904" state="ry"/>
   </tlLogic>
   <tlLogic id="1271504774" offset="0" programID="0" type="static">
      <phase duration="12.4925100567" state="G"/>
      <phase duration="4.1155238917" state="y"/>
   </tlLogic>
   <tlLogic id="1271504775" offset="0" programID="0" type="static">
      <phase duration="20.3990531924" state="Gr"/>
      <phase duration="4.74974670284" state="yr"/>
      <phase duration="20.3990531924" state="rG"/>
      <phase duration="4.74974670284" state="ry"/>
   </tlLogic>
   <tlLogic id="1271504781" offset="0" programID="0" type="static">
      <phase duration="21.521323391" state="GGrrr"/>
      <phase duration="2.40054954858" state="yyrrr"/>
      <phase duration="21.521323391" state="rrGrr"/>
      <phase duration="2.40054954858" state="rryrr"/>
      <phase duration="21.521323391" state="rrrGG"/>
      <phase duration="2.40054954858" state="rrryy"/>
   </tlLogic>
   <tlLogic id="1271504783" offset="0" programID="0" type="static">
      <phase duration="24.5373367426" state="Gr"/>
      <phase duration="4.89972156347" state="yr"/>
      <phase duration="24.5373367426" state="rG"/>
      <phase duration="4.89972156347" state="ry"/>
   </tlLogic>
   <tlLogic id="1271504788" offset="0" programID="0" type="static">
      <phase duration="18.9475299516" state="GGrrr"/>
      <phase duration="5.73813877998" state="yyrrr"/>
      <phase duration="18.9475299516" state="rrGGG"/>
      <phase duration="5.73813877998" state="rryyy"/>
   </tlLogic>
   <tlLogic id="1271504797" offset="0" programID="0" type="static">
      <phase duration="30.5693803679" state="Gr"/>
      <phase duration="7.82836847632" state="yr"/>
      <phase duration="30.5693803679" state="rG"/>
      <phase duration="7.82836847632" state="ry"/>
   </tlLogic>
   <tlLogic id="1271504801" offset="0" programID="0" type="static">
      <phase duration="21.063904894" state="G"/>
      <phase duration="4.39060860787" state="y"/>
   </tlLogic>
   <tlLogic id="1271504814" offset="0" programID="0" type="static">
      <phase duration="14.5368295397" state="G"/>
      <phase duration="3.92077515529" state="y"/>
   </tlLogic>
   <tlLogic id="1271504816" offset="0" programID="0" type="static">
      <phase duration="9.92592054297" state="G"/>
      <phase duration="6.12094460554" state="y"/>
   </tlLogic>
   <tlLogic id="1271504819" offset="0" programID="0" type="static">
      <phase duration="10.0081304031" state="Gr"/>
      <phase duration="4.96410969422" state="yr"/>
      <phase duration="10.0081304031" state="rG"/>
      <phase duration="4.96410969422" state="ry"/>
   </tlLogic>
   <tlLogic id="1271504823" offset="0" programID="0" type="static">
      <phase duration="27.6245785296" state="G"/>
      <phase duration="8.15317956471" state="y"/>
   </tlLogic>
   <tlLogic id="1271504824" offset="0" programID="0" type="static">
      <phase duration="9.1629002292" state="G"/>
      <phase duration="3.44077560261" state="y"/>
   </tlLogic>
   <tlLogic id="1271504827" offset="0" programID="0" type="static">
      <phase duration="12.6818901681" state="Gr"/>
      <phase duration="8.76513027735" state="yr"/>
      <phase duration="12.6818901681" state="rG"/>
      <phase duration="8.76513027735" state="ry"/>
   </tlLogic>
   <tlLogic id="1271504830" offset="0" programID="0" type="static">
      <phase duration="23.3835125899" state="GGrrr"/>
      <phase duration="4.0719823006" state="yyrrr"/>
      <phase duration="23.3835125899" state="rrGrr"/>
      <phase duration="4.0719823006" state="rryrr"/>
      <phase duration="23.3835125899" state="rrrGG"/>
      <phase duration="4.0719823006" state="rrryy"/>
   </tlLogic>
   <tlLogic id="1271504831" offset="0" programID="0" type="static">
      <phase duration="15.407263572" state="G"/>
      <phase duration="5.44701032194" state="y"/>
   </tlLogic>
   <tlLogic id="1271504832" offset="0" programID="0" type="static">
      <phase duration="15.8647031768" state="Gr"/>
      <phase duration="4.83384684085" state="yr"/>
      <phase duration="15.8647031768" state="rG"/>
      <phase duration="4.83384684085" state="ry"/>
   </tlLogic>
   <tlLogic id="1271504836" offset="0" programID="0" type="static">
      <phase duration="19.1698342344" state="G"/>
      <phase duration="7.95869709959" state="y"/>
   </tlLogic>
   <tlLogic id="1271504842" offset="0" programID="0" type="static">
      <phase duration="27.2387296293" state="G"/>
      <phase duration="7.71114150636" state="y"/>
   </tlLogic>
   <tlLogic id="1271504845" offset="0" programID="0" type="static">
      <phase duration="19.6136780912" state="G"/>
      <phase duration="6.55909648092" state="y"/>
   </tlLogic>
   <tlLogic id="1271504849" offset="0" programID="0" type="static">
      <phase duration="10.390645027" state="GGrrr"/>
      <phase duration="4.98744647489" state="yyrrr"/>
      <phase duration="10.390645027" state="rrGrr"/>
      <phase duration="4.98744647489" state="rryrr"/>
      <phase duration="10.390645027" state="rrrGG"/>
      <phase duration="4.98744647489" state="rrryy"/>
   </tlLogic>
   <tlLogic id="1271504863" offset="0" programID="0" type="static">
      <phase duration="22.1140983752" state="G"/>
      <phase duration="6.48965467952" state="y"/>
   </tlLogic>
   <tlLogic id="1271504864" offset="0" programID="0" type="static">
      <phase duration="11.3682642358" state="G"/>
      <phase duration="7.51156194216" state="y"/>
   </tlLogic>
   <tlLogic id="1271504866" offset="0" programID="0" type="static">
      <phase duration="21.2031080709" state="G"/>
      <phase duration="6.13269133539" state="y"/>
   </tlLogic>
   <tlLogic id="1271504867" offset="0" programID="0" type="static">
      <phase duration="26.4526547145" state="G"/>
      <phase duration="4.67444140286" state="y"/>
   </tlLogic>
   <tlLogic id="1271504868" offset="0" programID="0" type="static">
      <phase duration="26.1691378852" state="Gr"/>
      <phase duration="6.03656841994" state="yr"/>
      <phase duration="26.1691378852" state="rG"/>
      <phase duration="6.03656841994" state="ry"/>
   </tlLogic>
   <tlLogic id="1271504873" offset="0" programID="0" type="static">
      <phase duration="14.0186695612" state="GGrrr"/>
      <phase duration="5.68460983842" state="yyrrr"/>
      <phase duration="14.0186695612" state="rrGrr"/>
      <phase duration="5.68460983842" state="rryrr"/>
      <phase duration="14.0186695612" state="rrrGG"/>
      <phase duration="5.68460983842" state="rrryy"/>
   </tlLogic>
   <tlLogic id="1271504878" offset="0" programID="0" type="static">
      <phase duration="36.4027340152" state="G"/>
      <phase duration="8.88513884255" state="y"/>
   </tlLogic>
   <tlLogic id="1271504887" offset="0" programID="0" type="static">
      <phase duration="10.5077664522" state="G"/>
      <phase duration="4.21779347205" state="y"/>
   </tlLogic>
   <tlLogic id="1271504889" offset="0" programID="0" type="static">
      <phase duration="15.3548418259" state="Gr"/>
      <phase duration="5.50719088099" state="yr"/>
      <phase duration="15.3548418259" state="rG"/>
      <phase duration="5.50719088099" state="ry"/>
   </tlLogic>
   <tlLogic id="1271504891" offset="0" programID="0" type="static">
      <phase duration="10.5637742514" state="G"/>
      <phase duration="9.34217113967" state="y"/>
   </tlLogic>
   <tlLogic id="1271504898" offset="0" programID="0" type="static">
      <phase duration="13.7703778626" state="Gr"/>
      <phase duration="6.84020811972" state="yr"/>
      <phase duration="13.7703778626" state="rG"/>
      <phase duration="6.84020811972" state="ry"/>
   </tlLogic>
   <tlLogic id="1271504899" offset="0" programID="0" type="static">
      <phase duration="25.0124178687" state="G"/>
      <phase duration="5.84847907305" state="y"/>
   </tlLogic>
   <tlLogic id="1271504901" offset="0" programID="0" type="static">
      <phase duration="16.7759419645" state="GGrrr"/>
      <phase duration="5.80464848072" state="yyrrr"/>
      <phase duration="16.7759419645" state="rrGrr"/>
      <phase duration="5.80464848072" state="rryrr"/>
      <phase duration="16.7759419645" state="rrrGG"/>
      <phase duration="5.80464848072" state="rrryy"/>
   </tlLogic>
   <tlLogic id="1271504907" offset="0" programID="0" type="static">
      <phase duration="28.3880187997" state="G"/>
      <phase duration="4.95772852951" state="y"/>
   </tlLogic>
   <tlLogic id="1271504908" offset="0" programID="0" type="static">
      <phase duration="14.5418522028" state="G"/>
      <phase duration="7.51682965038" state="y"/>
   </tlLogic>
   <tlLogic id="1298727142" offset="0" programID="0" type="static">
      <phase duration="9.72994247825" state="Gr"/>
      <phase duration="8.32053427342" state="yr"/>
      <phase duration="9.72994247825" state="rG"/>
      <phase duration="8.32053427342" state="ry"/>
   </tlLogic>
   <tlLogic id="1299369678" offset="0" programID="0" type="static">
      <phase duration="22.2745069538" state="G"/>
      <phase duration="7.19597657562" state="y"/>
   </tlLogic>
   <tlLogic id="1299369679" offset="0" programID="0" type="static">
      <phase duration="9.30376825203" state="G"/>
      <phase duration="3.9405169961" state="y"/>
   </tlLogic>
   <tlLogic id="1299369684" offset="0" programID="0" type="static">
      <phase duration="23.3497874696" state="G"/>
      <phase duration="2.63399117108" state="y"/>
   </tlLogic>
   <tlLogic id="1299369691" offset="0" programID="0" type="static">
      <phase duration="25.8054157658" state="Gr"/>
      <phase duration="4.84064006631" state="yr"/>
      <phase duration="25.8054157658" state="rG"/>
      <phase duration="4.84064006631" state="ry"/>
   </tlLogic>
   <tlLogic id="1299369694" offset="0" programID="0" type="static">
      <phase duration="24.7767205836" state="G"/>
      <phase duration="2.99686981969" state="y"/>
   </tlLogic>
   <tlLogic id="1299369699" offset="0" programID="0" type="static">
      <phase duration="10.8955188651" state="G"/>
      <phase duration="7.02603289766" state="y"/>
   </tlLogic>
   <tlLogic id="1312440659" offset="0" programID="0" type="static">
      <phase duration="26.976544484" state="GGrrr"/>
      <phase duration="5.95782076382" state="yyrrr"/>
      <phase duration="26.976544484" state="rrGrr"/>
      <phase duration="5.95782076382" state="rryrr"/>
      <phase duration="26.976544484" state="rrrGG"/>
      <phase duration="5.95782076382" state="rrryy"/>
   </tlLogic>
   <tlLogic id="1312812204" offset="0" programID="0" type="static">
      <phase duration="21.0145746649" state="G"/>
      <phase duration="4.14599591999" state="y"/>
   </tlLogic>
   <tlLogic id="1353566368" offset="0" programID="0" type="static">
      <phase duration="30.0900455565" state="G"/>
      <phase duration="6.97129048525" state="y"/>
   </tlLogic>
   <tlLogic id="1360932319" offset="0" programID="0" type="static"/>
   <tlLogic id="1366801190" offset="0" programID="0" type="static"/>
   <tlLogic id="1366801194" offset="0" programID="0" type="static"/>
   <tlLogic id="1492679675" offset="0" programID="0" type="static">
      <phase duration="22.9105945219" state="Gr"/>
      <phase duration="5.83557666035" state="yr"/>
      <phase duration="22.9105945219" state="rG"/>
      <phase duration="5.83557666035" state="ry"/>
   </tlLogic>
   <tlLogic id="1492679681" offset="0" programID="0" type="static">
      <phase duration="24.0495927891" state="G"/>
      <phase duration="5.51220202185" state="y"/>
   </tlLogic>
   <tlLogic id="1492679696" offset="0" programID="0" type="static">
      <phase duration="18.772530869" state="Gr"/>
      <phase duration="7.23587866435" state="yr"/>
      <phase duration="18.772530869" state="rG"/>
      <phase duration="7.23587866435" state="ry"/>
   </tlLogic>
   <tlLogic id="1492679718" offset="0" programID="0" type="static"/>
   <tlLogic id="1492679723" offset="0" programID="0" type="static">
      <phase duration="25.6168119541" state="GGrrr"/>
      <phase duration="8.65460934027" state="yyrrr"/>
      <phase duration="25.6168119541" state="rrGrr"/>
      <phase duration="8.65460934027" state="rryrr"/>
      <phase duration="25.6168119541" state="rrrGG"/>
      <phase duration="8.65460934027" state="rrryy"/>
   </tlLogic>
   <tlLogic id="1492679729" offset="0" programID="0" type="static">
      <phase duration="13.9147071338" state="G"/>
      <phase duration="2.91424247974" state="y"/>
   </tlLogic>
   <tlLogic id="1492679731" offset="0" programID="0" type="static">
      <phase duration="8.30329916011" state="Gr"/>
      <phase duration="8.59957294248" state="yr"/>
      <phase duration="8.30329916011" state="rG"/>
      <phase duration="8.59957294248" state="ry"/>
   </tlLogic>
   <tlLogic id="1492679733" offset="0" programID="0" type="static">
      <phase duration="22.4129549059" state="Gr"/>
      <phase duration="3.82745562041" state="yr"/>
      <phase duration="22.4129549059" state="rG"/>
      <phase duration="3.82745562041" state="ry"/>
   </tlLogic>
   <tlLogic id="1492679738" offset="0" programID="0" type="static">
      <phase duration="25.7166799506" state="G"/>
      <phase duration="2.28883765247" state="y"/>
   </tlLogic>
   <tlLogic id="1492679747" offset="0" programID="0" type="static">
      <phase duration="23.4561139094" state="Gr"/>
      <phase duration="5.71723735097" state="yr"/>
      <phase duration="23.4561139094" state="rG"/>
      <phase duration="5.71723735097" state="ry"/>
   </tlLogic>
   <tlLogic id="1492679749" offset="0" programID="0" type="static">
      <phase duration="31.9190232338" state="GGrrr"/>
      <phase duration="7.53942114623" state="yyrrr"/>
      <phase duration="31.9190232338" state="rrGGr"/>
      <phase duration="7.53942114623" state="rryyr"/>
      <phase duration="31.9190232338" state="rrrrG"/>
      <phase duration="7.53942114623" state="rrrry"/>
   </tlLogic>
   <tlLogic id="1492679753" offset="0" programID="0" type="static">
      <phase duration="11.4245169723" state="G"/>
      <phase duration="6.25662244008" state="y"/>
   </tlLogic>
   <tlLogic id="1492679755" offset="0" programID="0" type="static">
      <phase duration="11.3289054879" state="G"/>
      <phase duration="8.37052913722" state="y"/>
   </tlLogic>
   <tlLogic id="1492802032" offset="0" programID="0" type="static">
      <phase duration="22.3451115383" state="G"/>
      <phase duration="2.76187979499" state="y"/>
   </tlLogic>
   <tlLogic id="1492802033" offset="0" programID="0" type="static">
      <phase duration="32.118223778" state="GGrrr"/>
      <phase duration="4.1861557824" state="yyrrr"/>
      <phase duration="32.118223778" state="rrGrr"/>
      <phase duration="4.1861557824" state="rryrr"/>
      <phase duration="32.118223778" state="rrrGG"/>
      <phase duration="4.1861557824" state="rrryy"/>
   </tlLogic>
   <tlLogic id="1492802034" offset="0" programID="0" type="static">
      <phase duration="7.45949379536" state="G"/>
      <phase duration="7.38068824211" state="y"/>
   </tlLogic>
   <tlLogic id="1492802065" offset="0" programID="0" type="static">
      <phase duration="16.5265751427" state="G"/>
      <phase duration="6.88339067244" state="y"/>
   </tlLogic>
   <tlLogic id="1492802068" offset="0" programID="0" type="static">
      <phase duration="25.1459345682" state="Gr"/>
      <phase duration="4.61890741946" state="yr"/>
      <phase duration="25.1459345682" state="rG"/>
      <phase duration="4.61890741946" state="ry"/>
   </tlLogic>
   <tlLogic id="1492802069" offset="0" programID="0" type="static">
      <phase duration="24.6821808249" state="G"/>
      <phase duration="1.85995072904" state="y"/>
   </tlLogic>
   <tlLogic id="1492802092" offset="0" programID="0" type="static">
      <phase duration="21.6089638057" state="G"/>
      <phase duration="4.24391987273" state="y"/>
   </tlLogic>
   <tlLogic id="1492802093" offset="0" programID="0" type="static">
      <phase duration="19.0462103932" state="GGrrr"/>
      <phase duration="7.747520431" state="yyrrr"/>
      <phase duration="19.0462103932" state="rrGGG"/>
      <phase duration="7.747520431" state="rryyy"/>
   </tlLogic>
   <tlLogic id="1492802125" offset="0" programID="0" type="static">
      <phase duration="18.96247516" state="Gr"/>
      <phase duration="8.78532210583" state="yr"/>
      <phase duration="18.96247516" state="rG"/>
      <phase duration="8.78532210583" state="ry"/>