<?xml version="1.0" ?>
<tlLogics>
   <tlLogic id="1000099503" offset="0" programID="0" type="static">
      <phase duration="4.43793720644" state="GGGrrrrrrrr"/>
      <phase duration="6.36186816298" state="yyyrrrrrrrr"/>
      <phase duration="4.43793720644" state="rrrGGGrrrrr"/>
      <phase duration="6.36186816298" state="rrryyyrrrrr"/>
      <phase duration="4.43793720644" state="rrrrrrGGGGG"/>
      <phase duration="6.36186816298" state="rrrrrryyyyy"/>
   </tlLogic>
   <tlLogic id="1000099520" offset="0" programID="0" type="static">
      <phase duration="6.63149421732" state="G"/>
      <phase duration="3.12833927572" state="y"/>
   </tlLogic>
   <tlLogic id="1000099591" offset="0" programID="0" type="static">
      <phase duration="9.52947102915" state="GGrr"/>
      <phase duration="7.44859490345" state="yyrr"/>
      <phase duration="9.52947102915" state="rrGG"/>
      <phase duration="7.44859490345" state="rryy"/>
   </tlLogic>
   <tlLogic id="1000099650" offset="0" programID="0" type="static">
      <phase duration="25.1221408664" state="G"/>
      <phase duration="9.35882592845" state="y"/>
   </tlLogic>
   <tlLogic id="1000099788" offset="0" programID="0" type="static">
      <phase duration="24.3007838315" state="GGrr"/>
      <phase duration="2.49736250281" state="yyrr"/>
      <phase duration="24.3007838315" state="rrGG"/>
      <phase duration="2.49736250281" state="rryy"/>
   </tlLogic>
   <tlLogic id="1012326820" offset="0" programID="0" type="static">
      <phase duration="38.8042154689" state="G"/>
      <phase duration="6.46387733263" state="y"/>
   </tlLogic>
   <tlLogic id="1037290808" offset="0" programID="0" type="static">
      <phase duration="34.6911270494" state="GGGrrrrrr"/>
      <phase duration="2.96577326323" state="yyyrrrrrr"/>
      <phase duration="34.6911270494" state="rrrGGGrrr"/>
      <phase duration="2.96577326323" state="rrryyyrrr"/>
      <phase duration="34.6911270494" state="rrrrrrGGG"/>
      <phase duration="2.96577326323" state="rrrrrryyy"/>
   </tlLogic>
   <tlLogic id="1037290822" offset="0" programID="0" type="static">
      <phase duration="20.7098522071" state="GGrr"/>
      <phase duration="1.26104191795" state="yyrr"/>
      <phase duration="20.7098522071" state="rrGG"/>
      <phase duration="1.26104191795" state="rryy"/>
   </tlLogic>
   <tlLogic id="1037290863" offset="0" programID="0" type="static">
      <phase duration="1.16208763479" state="GGrr"/>
      <phase duration="8.36506638997" state="yyrr"/>
      <phase duration="1.16208763479" state="rrGG"/>
      <phase duration="8.36506638997" state="rryy"/>
   </tlLogic>
   <tlLogic id="1037290889" offset="0" programID="0" type="static">
      <phase duration="39.9829016699" state="GGrr"/>
      <phase duration="8.33545566803" state="yyrr"/>
      <phase duration="39.9829016699" state="rrGG"/>
      <phase duration="8.33545566803" state="rryy"/>
   </tlLogic>
   <tlLogic id="1037290915" offset="0" programID="0" type="static">
      <phase duration="12.8422686393" state="GGrrr"/>
      <phase duration="4.57646286336" state="yyrrr"/>
      <phase duration="12.8422686393" state="rrGGG"/>
      <phase duration="4.57646286336" state="rryyy"/>
   </tlLogic>
   <tlLogic id="1040964328" offset="0" programID="0" type="static">
      <phase duration="12.4033582769" state="Gr"/>
      <phase duration="7.45709530105" state="yr"/>
      <phase duration="12.4033582769" state="rG"/>
      <phase duration="7.45709530105" state="ry"/>
   </tlLogic>
   <tlLogic id="1045044750" offset="0" programID="0" type="static">
      <phase duration="29.9050980994" state="Gr"/>
      <phase duration="2.86137764099" state="yr"/>
      <phase duration="29.9050980994" state="rG"/>
      <phase duration="2.86137764099" state="ry"/>
   </tlLogic>
   <tlLogic id="1045044803" offset="0" programID="0" type="static">
      <phase duration="24.7862223316" state="Gr"/>
      <phase duration="9.51514088297" state="yr"/>
      <phase duration="24.7862223316" state="rG"/>
      <phase duration="9.51514088297" state="ry"/>
   </tlLogic>
   <tlLogic id="1062771951" offset="0" programID="0" type="static">
      <phase duration="23.6823945056" state="GGrr"/>
      <phase duration="6.23618313309" state="yyrr"/>
      <phase duration="23.6823945056" state="rrGG"/>
      <phase duration="6.23618313309" state="rryy"/>
   </tlLogic>
   <tlLogic id="1062771990" offset="0" programID="0" type="static">
      <phase duration="11.9534262934" state="G"/>
      <phase duration="5.8897762268" state="y"/>
   </tlLogic>
   <tlLogic id="1109589987" offset="0" programID="0" type="static">
      <phase duration="2.59827356589" state="GGrr"/>
      <phase duration="7.89602246845" state="yyrr"/>
      <phase duration="2.59827356589" state="rrGG"/>
      <phase duration="7.89602246845" state="rryy"/>
   </tlLogic>
   <tlLogic id="1125127500" offset="0" programID="0" type="static">
      <phase duration="28.880311468" state="GG"/>
      <phase duration="2.89779892161" state="yy"/>
   </tlLogic>
   <tlLogic id="1149210260" offset="0" programID="0" type="static">
      <phase duration="1.51126770548" state="Gr"/>
      <phase duration="4.52652074107" state="yr"/>
      <phase duration="1.51126770548" state="rG"/>
      <phase duration="4.52652074107" state="ry"/>
   </tlLogic>
   <tlLogic id="1150667552" offset="0" programID="0" type="static">
      <phase duration="24.440171567" state="Gr"/>
      <phase duration="3.78171505622" state="yr"/>
      <phase duration="24.440171567" state="rG"/>
      <phase duration="3.78171505622" state="ry"/>
   </tlLogic>
   <tlLogic id="1150667560" offset="0" programID="0" type="static">
      <phase duration="25.0525672003" state="G"/>
      <phase duration="9.31512800885" state="y"/>
   </tlLogic>
   <tlLogic id="1150667568" offset="0" programID="0" type="static"/>
   <tlLogic id="1150667571" offset="0" programID="0" type="static">
      <phase duration="27.346562044" state="G"/>
      <phase duration="2.34498425022" state="y"/>
   </tlLogic>
   <tlLogic id="1150667586" offset="0" programID="0" type="static">
      <phase duration="5.49211211176" state="G"/>
      <phase duration="2.39859922865" state="y"/>
   </tlLogic>
   <tlLogic id="1150667603" offset="0" programID="0" type="static">
      <phase duration="39.2991802577" state="Gr"/>
      <phase duration="9.49936639265" state="yr"/>
      <phase duration="39.2991802577" state="rG"/>
      <phase duration="9.49936639265" state="ry"/>
   </tlLogic>
   <tlLogic id="1150667604" offset="0" programID="0" type="static">
      <phase duration="31.0596703436" state="Gr"/>
      <phase duration="1.15790041708" state="yr"/>
      <phase duration="31.0596703436" state="rG"/>
      <phase duration="1.15790041708" state="ry"/>
   </tlLogic>
   <tlLogic id="1150667608" offset="0" programID="0" type="static">
      <phase duration="10.9544241911" state="Gr"/>
      <phase duration="3.01918051874" state="yr"/>
      <phase duration="10.9544241911" state="rG"/>
      <phase duration="3.01918051874" state="ry"/>
   </tlLogic>
   <tlLogic id="1150667618" offset="0" programID="0" type="static">
      <phase duration="34.030748167" state="G"/>
      <phase duration="2.97963563285" state="y"/>
   </tlLogic>
   <tlLogic id="1156723839" offset="0" programID="0" type="static">
      <phase duration="11.3819288584" state="Gr"/>
      <phase duration="4.4660594889" state="yr"/>
      <phase duration="11.3819288584" state="rG"/>
      <phase duration="4.4660594889" state="ry"/>
   </tlLogic>
   <tlLogic id="1157698150" offset="0" programID="0" type="static">
      <phase duration="21.1387425857" state="G"/>
      <phase duration="8.24835239985" state="y"/>
   </tlLogic>
   <tlLogic id="1201745409" offset="0" programID="0" type="static">
      <phase duration="31.8442408477" state="G"/>
      <phase duration="6.75522833405" state="y"/>
   </tlLogic>
   <tlLogic id="1211136497" offset="0" programID="0" type="static">
      <phase duration="25.9971863661" state="GGrr"/>
      <phase duration="6.9869478994" state="yyrr"/>
      <phase duration="25.9971863661" state="rrGG"/>
      <phase duration="6.9869478994" state="rryy"/>
   </tlLogic>
   <tlLogic id="1211136595" offset="0" programID="0" type="static">
      <phase duration="15.6115906581" state="G"/>
      <phase duration="9.67167865899" state="y"/>
   </tlLogic>
   <tlLogic id="1211136870" offset="0" programID="0" type="static">
      <phase duration="11.3596049541" state="GGrr"/>
      <phase duration="4.17581940871" state="yyrr"/>
      <phase duration="11.3596049541" state="rrGG"/>
      <phase duration="4.17581940871" state="rryy"/>
   </tlLogic>
   <tlLogic id="1220020545" offset="0" programID="0" type="static">
      <phase duration="6.20220713239" state="GGrrr"/>
      <phase duration="4.18611027264" state="yyrrr"/>
      <phase duration="6.20220713239" state="rrGrr"/>
      <phase duration="4.18611027264" state="rryrr"/>
      <phase duration="6.20220713239" state="rrrGG"/>
      <phase duration="4.18611027264" state="rrryy"/>
   </tlLogic>
   <tlLogic id="1220020607" offset="0" programID="0" type="static">
      <phase duration="4.65812205729" state="GGrr"/>
      <phase duration="1.35943966581" state="yyrr"/>
      <phase duration="4.65812205729" state="rrGG"/>
      <phase duration="1.35943966581" state="rryy"/>
   </tlLogic>
   <tlLogic id="1220020656" offset="0" programID="0" type="static">
      <phase duration="3.36280403124" state="GGrr"/>
      <phase duration="4.19674048719" state="yyrr"/>
      <phase duration="3.36280403124" state="rrGG"/>
      <phase duration="4.19674048719" state="rryy"/>
   </tlLogic>
   <tlLogic id="1220020679" offset="0" programID="0" type="static">
      <phase duration="34.5677764192" state="GGrr"/>
      <phase duration="7.36614757638" state="yyrr"/>
      <phase duration="34.5677764192" state="rrGG"/>
      <phase duration="7.36614757638" state="rryy"/>
   </tlLogic>
   <tlLogic id="1229522502" offset="0" programID="0" type="static">
      <phase duration="9.32565421065" state="Gr"/>
      <phase duration="9.8437554226" state="yr"/>
      <phase duration="9.32565421065" state="rG"/>
      <phase duration="9.8437554226" state="ry"/>
   </tlLogic>
   <tlLogic id="1229522509" offset="0" programID="0" type="static">
      <phase duration="7.98651806699" state="G"/>
      <phase duration="9.43731606999" state="y"/>
   </tlLogic>
   <tlLogic id="1229522552" offset="0" programID="0" type="static">
      <phase duration="32.3115939968" state="G"/>
      <phase duration="6.50528672672" state="y"/>
   </tlLogic>
   <tlLogic id="1252265070" offset="0" programID="0" type="static"/>
   <tlLogic id="1252285082" offset="0" programID="0" type="static">
      <phase duration="34.4264665776" state="G"/>
      <phase duration="5.35386905455" state="y"/>
   </tlLogic>
   <tlLogic id="1252285092" offset="0" programID="0" type="static">
      <phase duration="9.10129056122" state="G"/>
      <phase duration="9.38971264353" state="y"/>
   </tlLogic>
   <tlLogic id="1252285133" offset="0" programID="0" type="static">
      <phase duration="31.9653040576" state="Gr"/>
      <phase duration="4.99435343601" state="yr"/>
      <phase duration="31.9653040576" state="rG"/>
      <phase duration="4.99435343601" state="ry"/>
   </tlLogic>
   <tlLogic id="1252285138" offset="0" programID="0" type="static">
      <phase duration="12.908407708" state="G"/>
      <phase duration="4.22369839684" state="y"/>
   </tlLogic>
   <tlLogic id="1252285140" offset="0" programID="0" type="static">
      <phase duration="16.5403291271" state="Gr"/>
      <phase duration="5.78080705954" state="yr"/>
      <phase duration="16.5403291271" state="rG"/>
      <phase duration="5.78080705954" state="ry"/>
   </tlLogic>
   <tlLogic id="1258258237" offset="0" programID="0" type="static">
      <phase duration="32.1674627053" state="GGr"/>
      <phase duration="7.24516254465" state="yyr"/>
      <phase duration="32.1674627053" state="rrG"/>
      <phase duration="7.24516254465" state="rry"/>
   </tlLogic>
   <tlLogic id="1264255381" offset="0" programID="0" type="static">
      <phase duration="9.99106274894" state="GGGrrrrrr"/>
      <phase duration="1.81665018162" state="yyyrrrrrr"/>
      <phase duration="9.99106274894" state="rrrGGGrrr"/>
      <phase duration="1.81665018162" state="rrryyyrrr"/>
      <phase duration="9.99106274894" state="rrrrrrGGG"/>
      <phase duration="1.81665018162" state="rrrrrryyy"/>
   </tlLogic>
   <tlLogic id="1271504747" offset="0" programID="0" type="static">
      <phase duration="12.968572993" state="Gr"/>
      <phase duration="1.4064334349" state="yr"/>
      <phase duration="12.968572993" state="rG"/>
      <phase duration="1.4064334349" state="ry"/>
   </tlLogic>
   <tlLogic id="1271504756" offset="0" programID="0" type="static">
      <phase duration="26.1280371441" state="Gr"/>
      <phase duration="3.10521278038" state="yr"/>
      <phase duration="26.1280371441" state="rG"/>
      <phase duration="3.10521278038" state="ry"/>
   </tlLogic>
   <tlLogic id="1271504757" offset="0" programID="0" type="static">
      <phase duration="25.0214694409" state="GGrrr"/>
      <phase duration="4.71832472912" state="yyrrr"/>
      <phase duration="25.0214694409" state="rrGrr"/>
      <phase duration="4.71832472912" state="rryrr"/>
      <phase duration="25.0214694409" state="rrrGG"/>
      <phase duration="4.71832472912" state="rrryy"/>
   </tlLogic>
   <tlLogic id="1271504764" offset="0" programID="0" type="static">
      <phase duration="29.3018643526" state="G"/>
      <phase duration="7.19538357727" state="y"/>
   </tlLogic>
   <tlLogic id="1271504767" offset="0" programID="0" type="static">
      <phase duration="34.0398929676" state="G"/>
      <phase duration="6.41385229787" state="y"/>
   </tlLogic>
   <tlLogic id="1271504770" offset="0" programID="0" type="static">
      <phase duration="37.0182845774" state="Gr"/>
      <phase duration="4.39183712651" state="yr"/>
      <phase duration="37.0182845774" state="rG"/>
      <phase duration="4.39183712651" state="ry"/>
   </tlLogic>
   <tlLogic id="1271504774" offset="0" programID="0" type="static">
      <phase duration="35.033964584" state="G"/>
      <phase duration="5.29848345938" state="y"/>
   </tlLogic>
   <tlLogic id="1271504778" offset="0" programID="0" type="static">
      <phase duration="30.8273330983" state="G"/>
      <phase duration="4.98113901346" state="y"/>
   </tlLogic>
   <tlLogic id="1271504812" offset="0" programID="0" type="static">
      <phase duration="20.9988555671" state="G"/>
      <phase duration="2.75921213687" state="y"/>
   </tlLogic>
   <tlLogic id="1271504813" offset="0" programID="0" type="static">
      <phase duration="28.2681328472" state="G"/>
      <phase duration="5.26044735693" state="y"/>
   </tlLogic>
   <tlLogic id="1271504822" offset="0" programID="0" type="static">
      <phase duration="9.59005144309" state="G"/>
      <phase duration="5.74199606904" state="y"/>
   </tlLogic>
   <tlLogic id="1271504823" offset="0" programID="0" type="static">
      <phase duration="21.2772594575" state="G"/>
      <phase duration="4.96225301999" state="y"/>
   </tlLogic>
   <tlLogic id="1271504827" offset="0" programID="0" type="static">
      <phase duration="34.7573422008" state="Gr"/>
      <phase duration="9.35348114667" state="yr"/>
      <phase duration="34.7573422008" state="rG"/>
      <phase duration="9.35348114667" state="ry"/>
   </tlLogic>
   <tlLogic id="1271504828" offset="0" programID="0" type="static">
      <phase duration="30.2777744905" state="GGrrr"/>
      <phase duration="1.71076238174" state="yyrrr"/>
      <phase duration="30.2777744905" state="rrGrr"/>
      <phase duration="1.71076238174" state="rryrr"/>
      <phase duration="30.2777744905" state="rrrGG"/>
      <phase duration="1.71076238174" state="rrryy"/>
   </tlLogic>
   <tlLogic id="1271504829" offset="0" programID="0" type="static">
      <phase duration="9.46305253196" state="Gr"/>
      <phase duration="2.33276760376" state="yr"/>
      <phase duration="9.46305253196" state="rG"/>
      <phase duration="2.33276760376" state="ry"/>
   </tlLogic>
   <tlLogic id="1271504830" offset="0" programID="0" type="static">
      <phase duration="21.7859711712" state="GGrrr"/>
      <phase duration="6.22793693517" state="yyrrr"/>
      <phase duration="21.7859711712" state="rrGrr"/>
      <phase duration="6.22793693517" state="rryrr"/>
      <phase duration="21.7859711712" state="rrrGG"/>
      <phase duration="6.22793693517" state="rrryy"/>
   </tlLogic>
   <tlLogic id="1271504831" offset="0" programID="0" type="static">
      <phase duration="6.09524689212" state="G"/>
      <phase duration="1.49736320202" state="y"/>
   </tlLogic>
   <tlLogic id="1271504832" offset="0" programID="0" type="static">
      <phase duration="30.4676543831" state="Gr"/>
      <phase duration="6.49193521204" state="yr"/>
      <phase duration="30.4676543831" state="rG"/>
      <phase duration="6.49193521204" state="ry"/>
   </tlLogic>
   <tlLogic id="1271504842" offset="0" programID="0" type="static">
      <phase duration="29.3167976342" state="G"/>
      <phase duration="1.64835992242" state="y"/>
   </tlLogic>
   <tlLogic id="1271504843" offset="0" programID="0" type="static">
      <phase duration="29.1082126429" state="Gr"/>
      <phase duration="4.64535432913" state="yr"/>
      <phase duration="29.1082126429" state="rG"/>
      <phase duration="4.64535432913" state="ry"/>
   </tlLogic>
   <tlLogic id="1271504850" offset="0" programID="0" type="static">
      <phase duration="32.4135004876" state="Gr"/>
      <phase duration="5.17708156168" state="yr"/>
      <phase duration="32.4135004876" state="rG"/>
      <phase duration="5.17708156168" state="ry"/>
   </tlLogic>
   <tlLogic id="1271504852" offset="0" programID="0" type="static">
      <phase duration="15.7004432759" state="G"/>
      <phase duration="2.80036367426" state="y"/>
   </tlLogic>
   <tlLogic id="1271504855" offset="0" programID="0" type="static">
      <phase duration="19.6535886272" state="Gr"/>
      <phase duration="6.6729337055" state="yr"/>
      <phase duration="19.6535886272" state="rG"/>
      <phase duration="6.6729337055" state="ry"/>
   </tlLogic>
   <tlLogic id="1271504861" offset="0" programID="0" type="static">
      <phase duration="38.4186965645" state="G"/>
      <phase duration="7.8410290427" state="y"/>
   </tlLogic>
   <tlLogic id="1271504863" offset="0" programID="0" type="static">
      <phase duration="17.3620977314" state="G"/>
      <phase duration="6.27074822604" state="y"/>
   </tlLogic>
   <tlLogic id="1271504868" offset="0" programID="0" type="static">
      <phase duration="34.1455161486" state="Gr"/>
      <phase duration="4.82244612592" state="yr"/>
      <phase duration="34.1455161486" state="rG"/>
      <phase duration="4.82244612592" state="ry"/>
   </tlLogic>
   <tlLogic id="1271504871" offset="0" programID="0" type="static">
      <phase duration="22.2163620847" state="GGrr"/>
      <phase duration="2.47820185963" state="yyrr"/>
      <phase duration="22.2163620847" state="rrGG"/>
      <phase duration="2.47820185963" state="rryy"/>
   </tlLogic>
   <tlLogic id="1271504873" offset="0" programID="0" type="static">
      <phase duration="2.62040747698" state="GGrrr"/>
      <phase duration="2.91084816868" state="yyrrr"/>
      <phase duration="2.62040747698" state="rrGrr"/>
      <phase duration="2.91084816868" state="rryrr"/>
      <phase duration="2.62040747698" state="rrrGG"/>
      <phase duration="2.91084816868" state="rrryy"/>
   </tlLogic>
   <tlLogic id="1271504874" offset="0" programID="0" type="static">
      <phase duration="20.3379395868" state="G"/>
      <phase duration="1.0295689148" state="y"/>
   </tlLogic>
   <tlLogic id="1271504881" offset="0" programID="0" type="static">
      <phase duration="9.09061842885" state="GGrrr"/>
      <phase duration="2.41892574373" state="yyrrr"/>
      <phase duration="9.09061842885" state="rrGrr"/>
      <phase duration="2.41892574373" state="rryrr"/>
      <phase duration="9.09061842885" state="rrrGG"/>
      <phase duration="2.41892574373" state="rrryy"/>
   </tlLogic>
   <tlLogic id="1271504888" offset="0" programID="0" type="static">
      <phase duration="11.836133081" state="G"/>
      <phase duration="2.91748039419" state="y"/>
   </tlLogic>
   <tlLogic id="1271504889" offset="0" programID="0" type="static">
      <phase duration="3.24364616763" state="Gr"/>
      <phase duration="7.91702901402" state="yr"/>
      <phase duration="3.24364616763" state="rG"/>
      <phase duration="7.91702901402" state="ry"/>
   </tlLogic>
   <tlLogic id="1271504891" offset="0" programID="0" type="static">
      <phase duration="29.7786570478" state="G"/>
      <phase duration="3.22124607955" state="y"/>
   </tlLogic>
   <tlLogic id="1271504899" offset="0" programID="0" type="static">
      <phase duration="32.1008546892" state="G"/>
      <phase duration="4.86404755227" state="y"/>
   </tlLogic>
   <tlLogic id="1271504901" offset="0" programID="0" type="static">
      <phase duration="37.7321766087" state="GGrrr"/>
      <phase duration="2.12880902103" state="yyrrr"/>
      <phase duration="37.7321766087" state="rrGrr"/>
      <phase duration="2.12880902103" state="rryrr"/>
      <phase duration="37.7321766087" state="rrrGG"/>
      <phase duration="2.12880902103" state="rrryy"/>
   </tlLogic>
   <tlLogic id="1271504910" offset="0" programID="0" type="static">
      <phase duration="12.2785302701" state="Gr"/>
      <phase duration="6.96076236725" state="yr"/>
      <phase duration="12.2785302701" state="rG"/>
      <phase duration="6.96076236725" state="ry"/>
   </tlLogic>
   <tlLogic id="1271504913" offset="0" programID="0" type="static">
      <phase duration="10.9826863399" state="GGrrr"/>
      <phase duration="7.33124215987" state="yyrrr"/>
      <phase duration="10.9826863399" state="rrGGr"/>
      <phase duration="7.33124215987" state="rryyr"/>
      <phase duration="10.9826863399" state="rrrrG"/>
      <phase duration="7.33124215987" state="rrrry"/>
   </tlLogic>
   <tlLogic id="1298727142" offset="0" programID="0" type="static">
      <phase duration="5.81843534968" state="Gr"/>
      <phase duration="4.79541951648" state="yr"/>
      <phase duration="5.81843534968" state="rG"/>
      <phase duration="4.79541951648" state="ry"/>
   </tlLogic>
   <tlLogic id="1299369677" offset="0" programID="0" type="static">
      <phase duration="13.2472847941" state="G"/>
      <phase duration="2.60750688794" state="y"/>
   </tlLogic>
   <tlLogic id="1299369684" offset="0" programID="0" type="static">
      <phase duration="20.5223110078" state="G"/>
      <phase duration="5.15964436097" state="y"/>
   </tlLogic>
   <tlLogic id="1299369686" offset="0" programID="0" type="static">
      <phase duration="18.2397149703" state="G"/>
      <phase duration="2.36772144044" state="y"/>
   </tlLogic>
   <tlLogic id="1299369689" offset="0" programID="0" type="static">
      <phase duration="25.5695950322" state="GGrrr"/>
      <phase duration="7.37226488998" state="yyrrr"/>
      <phase duration="25.5695950322" state="rrGrr"/>
      <phase duration="7.37226488998" state="rryrr"/>
      <phase duration="25.5695950322" state="rrrGG"/>
      <phase duration="7.37226488998" state="rrryy"/>
   </tlLogic>
   <tlLogic id="1299369694" offset="0" programID="0" type="static">
      <phase duration="20.3393348399" state="G"/>
      <phase duration="9.18179289961" state="y"/>
   </tlLogic>
   <tlLogic id="1299369697" offset="0" programID="0" type="static">
      <phase duration="13.4136303823" state="G"/>
      <phase duration="9.83759995157" state="y"/>
   </tlLogic>
   <tlLogic id="1366801174" offset="0" programID="0" type="static">
      <phase duration="11.5615667466" state="G"/>
      <phase duration="2.1097547566" state="y"/>
   </tlLogic>
   <tlLogic id="1366801185" offset="0" programID="0" type="static">
      <phase duration="11.6219532162" state="G"/>
      <phase duration="3.40933906094" state="y"/>
   </tlLogic>
   <tlLogic id="1366801191" offset="0" programID="0" type="static">
      <phase duration="30.4474467445" state="G"/>
      <phase duration="2.96656292009" state="y"/>
   </tlLogic>
   <tlLogic id="1366801194" offset="0" programID="0" type="static"/>
   <tlLogic id="1366801200" offset="0" programID="0" type="static">
      <phase duration="10.2424294027" state="Gr"/>
      <phase duration="7.76201767961" state="yr"/>
      <phase duration="10.2424294027" state="rG"/>
      <phase duration="7.76201767961" state="ry"/>
   </tlLogic>
   <tlLogic id="1366801262" offset="0" programID="0" type="static">
      <phase duration="35.2415505094" state="G"/>
      <phase duration="4.1619488842" state="y"/>
   </tlLogic>
   <tlLogic id="1492679678" offset="0" programID="0" type="static">
      <phase duration="9.86577674664" state="Gr"/>
      <phase duration="9.0763383611" state="yr"/>
      <phase duration="9.86577674664" state="rG"/>
      <phase duration="9.0763383611" state="ry"/>
   </tlLogic>
   <tlLogic id="1492679696" offset="0" programID="0" type="static">
      <phase duration="27.6422338073" state="Gr"/>
      <phase duration="1.61087606023" state="yr"/>
      <phase duration="27.6422338073" state="rG"/>
      <phase duration="1.61087606023" state="ry"/>
   </tlLogic>
   <tlLogic id="1492679714" offset="0" programID="0" type="static">
      <phase duration="9.03030956426" state="Gr"/>
      <phase duration="2.78266347746" state="yr"/>
      <phase duration="9.03030956426" state="rG"/>
      <phase duration="2.78266347746" state="ry"/>
   </tlLogic>
   <tlLogic id="1492679723" offset="0" programID="0" type="static">
      <phase duration="37.5679051462" state="GGrrr"/>
      <phase duration="4.78098305095" state="yyrrr"/>
      <phase duration="37.5679051462" state="rrGrr"/>
      <phase duration="4.78098305095" state="rryrr"/>
      <phase duration="37.5679051462" state="rrrGG"/>
      <phase duration="4.78098305095" state="rrryy"/>
   </tlLogic>
   <tlLogic id="1492679738" offset="0" programID="0" type="static">
      <phase duration="4.74136596906" state="G"/>
      <phase duration="7.75100414061" state="y"/>
   </tlLogic>
   <tlLogic id="1492679739" offset="0" programID="0" type="static">
      <phase duration="7.55764167481" state="G"/>
      <phase duration="9.65250925363" state="y"/>
   </tlLogic>
   <tlLogic id="1492679741" offset="0" programID="0" type="static">
      <phase duration="21.5250884143" state="G"/>
      <phase duration="8.15556604896" state="y"/>
   </tlLogic>
   <tlLogic id="1492679756" offset="0" programID="0" type="static">
      <phase duration="19.9684542511" state="G"/>
      <phase duration="1.59690853716" state="y"/>
   </tlLogic>
   <tlLogic id="1492802030" offset="0" programID="0" type="static">
      <phase duration="11.7127714451" state="GGrr"/>
      <phase duration="9.23917764553" state="yyrr"/>
      <phase duration="11.7127714451" state="rrGG"/>
      <phase duration="9.23917764553" state="rryy"/>
   </tlLogic>
   <tlLogic id="1492802065" offset="0" programID="0" type="static">
      <phase duration="19.004654119" state="G"/>
      <phase duration="3.87033036202" state="y"/>
   </tlLogic>
   <tlLogic id="1492802066" offset="0" programID="0" type="static">
      <phase duration="39.6172638411" state="Gr"/>
      <phase duration="3.4320796425" state="yr"/>
      <phase duration="39.6172638411" state="rG"/>
      <phase duration="3.4320796425" state="ry"/>
   </tlLogic>
   <tlLogic id="1492802069" offset="0" programID="0" type="static">
      <phase duration="33.440758735" state="G"/>
      <phase duration="7.57318610608" state="y"/>
   </tlLogic>
   <tlLogic id="1492802080" offset="0" programID="0" type="static">
      <phase duration="19.0248774457" state="GGrrr"/>
      <phase duration="4.99441938574" state="yyrrr"/>
      <phase duration="19.0248774457" state="rrGrr"/>
      <phase duration="4.99441938574" state="rryrr"/>
      <phase duration="19.0248774457" state="rrrGG"/>
      <phase duration="4.99441938574" state="rrryy"/>
   </tlLogic>
   <tlLogic id="1492802092" offset="0" programID="0" type="static">
      <phase duration="1.5988820005" state="G"/>
      <phase duration="8.42505841426" state="y"/>
   </tlLogic>
   <tlLogic id="1492802135" offset="0" programID="0" type="static">
      <phase duration="25.5765979461" state="G"/>
      <phase duration="7.90976118315" state="y"/>
   </tlLogic>
   <tlLogic id="1492802188" offset="0" programID="0" type="static">
      <phase duration="24.6426225463" state="G"/>
      <phase duration="8.819811289" state="y"/>
   </tlLogic>
   <tlLogic id="1520433227" offset="0" programID="0" type="static">
      <phase duration="35.3850054941" state="Gr"/>
      <phase duration="5.01735111823" state="yr"/>
      <phase duration="35.3850054941" state="rG"/>
      <phase duration="5.01735111823" state="ry"/>
   </tlLogic>
   <tlLogic id="1523162688" offset="0" programID="0" type="static">
      <phase duration="4.37002434122" state="Gr"/>
      <phase duration="8.49424627393" state="yr"/>
      <phase duration="4.37002434122" state="rG"/>
      <phase duration="8.49424627393" state="ry"/>
   </tlLogic>
   <tlLogic id="1546385394" offset="0" programID="0" type="static">
      <phase duration="9.88435218006" state="Gr"/>
      <phase duration="4.84457007962" state="yr"/>
      <phase duration="9.88435218006" state="rG"/>
      <phase duration="4.84457007962" state="ry"/>
   </tlLogic>
   <tlLogic id="1546385396" offset="0" programID="0" type="static">
      <phase duration="36.5912638186" state="G"/>
      <phase duration="5.64101934795" state="y"/>
   </tlLogic>
   <tlLogic id="1581750763" offset="0" programID="0" type="static">
      <phase duration="29.2210881683" state="G"/>
      <phase duration="7.75460948225" state="y"/>
   </tlLogic>