<?xml version="1.0" ?>
<tlLogics>
   <tlLogic id="1000099468" offset="0" programID="0" type="static">
      <phase duration="11.1157142943" state="G"/>
      <phase duration="8.31322659935" state="y"/>
   </tlLogic>
   <tlLogic id="1000099475" offset="0" programID="0" type="static">
      <phase duration="8.0561303385" state="GG"/>
      <phase duration="4.13647512757" state="yy"/>
   </tlLogic>
   <tlLogic id="1000099544" offset="0" programID="0" type="static">
      <phase duration="21.9085366688" state="GGrrr"/>
      <phase duration="7.9044005206" state="yyrrr"/>
      <phase duration="21.9085366688" state="rrGGr"/>
      <phase duration="7.9044005206" state="rryyr"/>
      <phase duration="21.9085366688" state="rrrrG"/>
      <phase duration="7.9044005206" state="rrrry"/>
   </tlLogic>
   <tlLogic id="1000099576" offset="0" programID="0" type="static">
      <phase duration="31.0471301054" state="Grrrr"/>
      <phase duration="10.0" state="yrrrr"/>
      <phase duration="31.0471301054" state="rGGrr"/>
      <phase duration="10.0" state="ryyrr"/>
      <phase duration="31.0471301054" state="rrrGG"/>
      <phase duration="10.0" state="rrryy"/>
   </tlLogic>
   <tlLogic id="1000099591" offset="0" programID="0" type="static">
      <phase duration="15.2509241763" state="GGrr"/>
      <phase duration="7.92891552387" state="yyrr"/>
      <phase duration="15.2509241763" state="rrGG"/>
      <phase duration="7.92891552387" state="rryy"/>
   </tlLogic>
   <tlLogic id="1000099607" offset="0" programID="0" type="static">
      <phase duration="21.0811689424" state="GGr"/>
      <phase duration="10.0" state="yyr"/>
      <phase duration="21.0811689424" state="rrG"/>
      <phase duration="10.0" state="rry"/>
   </tlLogic>
   <tlLogic id="1000099650" offset="0" programID="0" type="static">
      <phase duration="11.9398652031" state="G"/>
      <phase duration="5.87337296467" state="y"/>
   </tlLogic>
   <tlLogic id="1000099651" offset="0" programID="0" type="static">
      <phase duration="12.7907922" state="GGrrrr"/>
      <phase duration="9.27739383464" state="yyrrrr"/>
      <phase duration="12.7907922" state="rrGGrr"/>
      <phase duration="9.27739383464" state="rryyrr"/>
      <phase duration="12.7907922" state="rrrrGG"/>
      <phase duration="9.27739383464" state="rrrryy"/>
   </tlLogic>
   <tlLogic id="1000099724" offset="0" programID="0" type="static">
      <phase duration="4.68025329041" state="Grrr"/>
      <phase duration="9.81159439051" state="yrrr"/>
      <phase duration="4.68025329041" state="rGGG"/>
      <phase duration="9.81159439051" state="ryyy"/>
   </tlLogic>
   <tlLogic id="1000099788" offset="0" programID="0" type="static">
      <phase duration="13.0" state="GGrr"/>
      <phase duration="6.68135832269" state="yyrr"/>
      <phase duration="13.0" state="rrGG"/>
      <phase duration="6.68135832269" state="rryy"/>
   </tlLogic>
   <tlLogic id="1012321573" offset="0" programID="0" type="static">
      <phase duration="23.5495761648" state="Gr"/>
      <phase duration="6.46566516403" state="yr"/>
      <phase duration="23.5495761648" state="rG"/>
      <phase duration="6.46566516403" state="ry"/>
   </tlLogic>
   <tlLogic id="1012326820" offset="0" programID="0" type="static">
      <phase duration="24.8322286946" state="G"/>
      <phase duration="3.0466102548" state="y"/>
   </tlLogic>
   <tlLogic id="1028832186" offset="0" programID="0" type="static"/>
   <tlLogic id="1028832536" offset="0" programID="0" type="static"/>
   <tlLogic id="1037290808" offset="0" programID="0" type="static">
      <phase duration="20.1633471975" state="GGGrrrrrr"/>
      <phase duration="5.03922526138" state="yyyrrrrrr"/>
      <phase duration="20.1633471975" state="rrrGGGrrr"/>
      <phase duration="5.03922526138" state="rrryyyrrr"/>
      <phase duration="20.1633471975" state="rrrrrrGGG"/>
      <phase duration="5.03922526138" state="rrrrrryyy"/>
   </tlLogic>
   <tlLogic id="1037290822" offset="0" programID="0" type="static">
      <phase duration="11.0" state="GGrr"/>
      <phase duration="4.76675446163" state="yyrr"/>
      <phase duration="11.0" state="rrGG"/>
      <phase duration="4.76675446163" state="rryy"/>
   </tlLogic>
   <tlLogic id="1037290863" offset="0" programID="0" type="static">
      <phase duration="17.7613867608" state="GGrr"/>
      <phase duration="7.25509836297" state="yyrr"/>
      <phase duration="17.7613867608" state="rrGG"/>
      <phase duration="7.25509836297" state="rryy"/>
   </tlLogic>
   <tlLogic id="1037290915" offset="0" programID="0" type="static">
      <phase duration="15.3903005153" state="GGrrr"/>
      <phase duration="7.16022906316" state="yyrrr"/>
      <phase duration="15.3903005153" state="rrGGG"/>
      <phase duration="7.16022906316" state="rryyy"/>
   </tlLogic>
   <tlLogic id="1040964328" offset="0" programID="0" type="static">
      <phase duration="19.7993416833" state="Gr"/>
      <phase duration="6.07116088348" state="yr"/>
      <phase duration="19.7993416833" state="rG"/>
      <phase duration="6.07116088348" state="ry"/>
   </tlLogic>
   <tlLogic id="1045044692" offset="0" programID="0" type="static">
      <phase duration="28.7255606515" state="Gr"/>
      <phase duration="7.61211461046" state="yr"/>
      <phase duration="28.7255606515" state="rG"/>
      <phase duration="7.61211461046" state="ry"/>
   </tlLogic>
   <tlLogic id="1045044750" offset="0" programID="0" type="static">
      <phase duration="36.284991597" state="Gr"/>
      <phase duration="5.50943181274" state="yr"/>
      <phase duration="36.284991597" state="rG"/>
      <phase duration="5.50943181274" state="ry"/>
   </tlLogic>
   <tlLogic id="1045044803" offset="0" programID="0" type="static">
      <phase duration="27.1983516947" state="Gr"/>
      <phase duration="3.68015608228" state="yr"/>
      <phase duration="27.1983516947" state="rG"/>
      <phase duration="3.68015608228" state="ry"/>
   </tlLogic>
   <tlLogic id="1045044863" offset="0" programID="0" type="static">
      <phase duration="17.6546041353" state="G"/>
      <phase duration="5.82404268156" state="y"/>
   </tlLogic>
   <tlLogic id="1062771951" offset="0" programID="0" type="static">
      <phase duration="10.0" state="GGrr"/>
      <phase duration="7.46877449736" state="yyrr"/>
      <phase duration="10.0" state="rrGG"/>
      <phase duration="7.46877449736" state="rryy"/>
   </tlLogic>
   <tlLogic id="1123630986" offset="0" programID="0" type="static">
      <phase duration="9.63881691002" state="G"/>
      <phase duration="6.13012558596" state="y"/>
   </tlLogic>
   <tlLogic id="1149210260" offset="0" programID="0" type="static">
      <phase duration="19.4835087234" state="Gr"/>
      <phase duration="8.89954189449" state="yr"/>
      <phase duration="19.4835087234" state="rG"/>
      <phase duration="8.89954189449" state="ry"/>
   </tlLogic>
   <tlLogic id="1150667552" offset="0" programID="0" type="static">
      <phase duration="34.8344779395" state="Gr"/>
      <phase duration="9.73477158198" state="yr"/>
      <phase duration="34.8344779395" state="rG"/>
      <phase duration="9.73477158198" state="ry"/>
   </tlLogic>
   <tlLogic id="1150667560" offset="0" programID="0" type="static">
      <phase duration="23.0265929279" state="G"/>
      <phase duration="10.0" state="y"/>
   </tlLogic>
   <tlLogic id="1150667586" offset="0" programID="0" type="static">
      <phase duration="6.67941716213" state="G"/>
      <phase duration="10.0" state="y"/>
   </tlLogic>
   <tlLogic id="1150667604" offset="0" programID="0" type="static">
      <phase duration="22.7618303209" state="Gr"/>
      <phase duration="8.46036077521" state="yr"/>
      <phase duration="22.7618303209" state="rG"/>
      <phase duration="8.46036077521" state="ry"/>
   </tlLogic>
   <tlLogic id="1150667618" offset="0" programID="0" type="static">
      <phase duration="7.51809543793" state="G"/>
      <phase duration="8.86162052334" state="y"/>
   </tlLogic>
   <tlLogic id="1156723779" offset="0" programID="0" type="static">
      <phase duration="18.0037856407" state="GGrrr"/>
      <phase duration="7.0968421424" state="yyrrr"/>
      <phase duration="18.0037856407" state="rrGrr"/>
      <phase duration="7.0968421424" state="rryrr"/>
      <phase duration="18.0037856407" state="rrrGG"/>
      <phase duration="7.0968421424" state="rrryy"/>
   </tlLogic>
   <tlLogic id="1156723834" offset="0" programID="0" type="static">
      <phase duration="9.29751989129" state="G"/>
      <phase duration="9.58468841892" state="y"/>
   </tlLogic>
   <tlLogic id="1156723839" offset="0" programID="0" type="static">
      <phase duration="4.70771728505" state="Gr"/>
      <phase duration="8.9257149751" state="yr"/>
      <phase duration="4.70771728505" state="rG"/>
      <phase duration="8.9257149751" state="ry"/>
   </tlLogic>
   <tlLogic id="1201745377" offset="0" programID="0" type="static">
      <phase duration="26.6599075923" state="G"/>
      <phase duration="10.0" state="y"/>
   </tlLogic>
   <tlLogic id="1201745399" offset="0" programID="0" type="static"/>
   <tlLogic id="1211136595" offset="0" programID="0" type="static">
      <phase duration="31.8637317149" state="G"/>
      <phase duration="7.12701264999" state="y"/>
   </tlLogic>
   <tlLogic id="1220020656" offset="0" programID="0" type="static">
      <phase duration="24.5293331691" state="GGrr"/>
      <phase duration="2.55889686635" state="yyrr"/>
      <phase duration="24.5293331691" state="rrGG"/>
      <phase duration="2.55889686635" state="rryy"/>
   </tlLogic>
   <tlLogic id="1220020673" offset="0" programID="0" type="static">
      <phase duration="21.7842635363" state="GGGrrrrrr"/>
      <phase duration="9.4213601986" state="yyyrrrrrr"/>
      <phase duration="21.7842635363" state="rrrGGGrrr"/>
      <phase duration="9.4213601986" state="rrryyyrrr"/>
      <phase duration="21.7842635363" state="rrrrrrGGG"/>
      <phase duration="9.4213601986" state="rrrrrryyy"/>
   </tlLogic>
   <tlLogic id="1220020679" offset="0" programID="0" type="static">
      <phase duration="19.6395576599" state="GGrr"/>
      <phase duration="7.08784388383" state="yyrr"/>
      <phase duration="19.6395576599" state="rrGG"/>
      <phase duration="7.08784388383" state="rryy"/>
   </tlLogic>
   <tlLogic id="1229522462" offset="0" programID="0" type="static">
      <phase duration="34.3881137789" state="G"/>
      <phase duration="3.75290140263" state="y"/>
   </tlLogic>
   <tlLogic id="1229522509" offset="0" programID="0" type="static">
      <phase duration="22.7457290098" state="G"/>
      <phase duration="8.24647388709" state="y"/>
   </tlLogic>
   <tlLogic id="1252285079" offset="0" programID="0" type="static">
      <phase duration="10.8122037846" state="Gr"/>
      <phase duration="1.13444841987" state="yr"/>
      <phase duration="10.8122037846" state="rG"/>
      <phase duration="1.13444841987" state="ry"/>
   </tlLogic>
   <tlLogic id="1252285082" offset="0" programID="0" type="static">
      <phase duration="25.0799781852" state="G"/>
      <phase duration="10.0" state="y"/>
   </tlLogic>
   <tlLogic id="1252285092" offset="0" programID="0" type="static">
      <phase duration="15.0731447346" state="G"/>
      <phase duration="9.51342336723" state="y"/>
   </tlLogic>
   <tlLogic id="1252285093" offset="0" programID="0" type="static">
      <phase duration="23.7912417892" state="Gr"/>
      <phase duration="10.0" state="yr"/>
      <phase duration="23.7912417892" state="rG"/>
      <phase duration="10.0" state="ry"/>
   </tlLogic>
   <tlLogic id="1252285105" offset="0" programID="0" type="static">
      <phase duration="11.4964463227" state="G"/>
      <phase duration="6.32462666468" state="y"/>
   </tlLogic>
   <tlLogic id="1252285133" offset="0" programID="0" type="static">
      <phase duration="21.3119804647" state="Gr"/>
      <phase duration="8.82447326856" state="yr"/>
      <phase duration="21.3119804647" state="rG"/>
      <phase duration="8.82447326856" state="ry"/>
   </tlLogic>
   <tlLogic id="1252285137" offset="0" programID="0" type="static">
      <phase duration="24.168576368" state="Gr"/>
      <phase duration="10.0" state="yr"/>
      <phase duration="24.168576368" state="rG"/>
      <phase duration="10.0" state="ry"/>
   </tlLogic>
   <tlLogic id="1252285138" offset="0" programID="0" type="static">
      <phase duration="4.39111316682" state="G"/>
      <phase duration="10.0" state="y"/>
   </tlLogic>
   <tlLogic id="1258258237" offset="0" programID="0" type="static">
      <phase duration="25.0011624166" state="GGr"/>
      <phase duration="3.80643374551" state="yyr"/>
      <phase duration="25.0011624166" state="rrG"/>
      <phase duration="3.80643374551" state="rry"/>
   </tlLogic>
   <tlLogic id="1271504743" offset="0" programID="0" type="static">
      <phase duration="27.2302269974" state="G"/>
      <phase duration="4.82817239549" state="y"/>
   </tlLogic>
   <tlLogic id="1271504748" offset="0" programID="0" type="static">
      <phase duration="18.1472053873" state="Gr"/>
      <phase duration="5.83617061156" state="yr"/>
      <phase duration="18.1472053873" state="rG"/>
      <phase duration="5.83617061156" state="ry"/>
   </tlLogic>
   <tlLogic id="1271504750" offset="0" programID="0" type="static">
      <phase duration="20.7522195625" state="G"/>
      <phase duration="1.27407611234" state="y"/>
   </tlLogic>
   <tlLogic id="1271504755" offset="0" programID="0" type="static">
      <phase duration="25.6926580573" state="GGrrr"/>
      <phase duration="7.00367833112" state="yyrrr"/>
      <phase duration="25.6926580573" state="rrGrr"/>
      <phase duration="7.00367833112" state="rryrr"/>
      <phase duration="25.6926580573" state="rrrGG"/>
      <phase duration="7.00367833112" state="rrryy"/>
   </tlLogic>
   <tlLogic id="1271504757" offset="0" programID="0" type="static">
      <phase duration="23.47804503" state="GGrrr"/>
      <phase duration="8.27745311529" state="yyrrr"/>
      <phase duration="23.47804503" state="rrGrr"/>
      <phase duration="8.27745311529" state="rryrr"/>
      <phase duration="23.47804503" state="rrrGG"/>
      <phase duration="8.27745311529" state="rrryy"/>
   </tlLogic>
   <tlLogic id="1271504758" offset="0" programID="0" type="static">
      <phase duration="22.6730162118" state="G"/>
      <phase duration="3.47108749876" state="y"/>
   </tlLogic>
   <tlLogic id="1271504764" offset="0" programID="0" type="static">
      <phase duration="7.02651272901" state="G"/>
      <phase duration="2.0" state="y"/>
   </tlLogic>
   <tlLogic id="1271504766" offset="0" programID="0" type="static">
      <phase duration="17.073000692" state="Gr"/>
      <phase duration="3.20748700232" state="yr"/>
      <phase duration="17.073000692" state="rG"/>
      <phase duration="3.20748700232" state="ry"/>
   </tlLogic>
   <tlLogic id="1271504767" offset="0" programID="0" type="static">
      <phase duration="23.9773684414" state="G"/>
      <phase duration="9.82588989208" state="y"/>
   </tlLogic>
   <tlLogic id="1271504768" offset="0" programID="0" type="static">
      <phase duration="28.632777635" state="Gr"/>
      <phase duration="6.76362925288" state="yr"/>
      <phase duration="28.632777635" state="rG"/>
      <phase duration="6.76362925288" state="ry"/>
   </tlLogic>
   <tlLogic id="1271504773" offset="0" programID="0" type="static">
      <phase duration="35.1080592556" state="GGrrr"/>
      <phase duration="9.21689074116" state="yyrrr"/>
      <phase duration="35.1080592556" state="rrGrr"/>
      <phase duration="9.21689074116" state="rryrr"/>
      <phase duration="35.1080592556" state="rrrGG"/>
      <phase duration="9.21689074116" state="rrryy"/>
   </tlLogic>
   <tlLogic id="1271504774" offset="0" programID="0" type="static">
      <phase duration="1.40008441415" state="G"/>
      <phase duration="8.03493871601" state="y"/>
   </tlLogic>
   <tlLogic id="1271504778" offset="0" programID="0" type="static">
      <phase duration="16.6564117515" state="G"/>
      <phase duration="8.63144837722" state="y"/>
   </tlLogic>
   <tlLogic id="1271504781" offset="0" programID="0" type="static">
      <phase duration="27.8966934677" state="GGrrr"/>
      <phase duration="3.44815412407" state="yyrrr"/>
      <phase duration="27.8966934677" state="rrGrr"/>
      <phase duration="3.44815412407" state="rryrr"/>
      <phase duration="27.8966934677" state="rrrGG"/>
      <phase duration="3.44815412407" state="rrryy"/>
   </tlLogic>
   <tlLogic id="1271504783" offset="0" programID="0" type="static">
      <phase duration="26.0116432348" state="Gr"/>
      <phase duration="7.77592060747" state="yr"/>
      <phase duration="26.0116432348" state="rG"/>
      <phase duration="7.77592060747" state="ry"/>
   </tlLogic>
   <tlLogic id="1271504788" offset="0" programID="0" type="static">
      <phase duration="25.5674392605" state="GGrrr"/>
      <phase duration="6.8794124267" state="yyrrr"/>
      <phase duration="25.5674392605" state="rrGGG"/>
      <phase duration="6.8794124267" state="rryyy"/>
   </tlLogic>
   <tlLogic id="1271504797" offset="0" programID="0" type="static">
      <phase duration="5.04571815066" state="Gr"/>
      <phase duration="10.0" state="yr"/>
      <phase duration="5.04571815066" state="rG"/>
      <phase duration="10.0" state="ry"/>
   </tlLogic>
   <tlLogic id="1271504801" offset="0" programID="0" type="static">
      <phase duration="20.7016107821" state="G"/>
      <phase duration="9.33544075707" state="y"/>
   </tlLogic>
   <tlLogic id="1271504804" offset="0" programID="0" type="static">
      <phase duration="22.6682760748" state="Gr"/>
      <phase duration="3.27059406068" state="yr"/>
      <phase duration="22.6682760748" state="rG"/>
      <phase duration="3.27059406068" state="ry"/>
   </tlLogic>
   <tlLogic id="1271504814" offset="0" programID="0" type="static">
      <phase duration="11.3789994281" state="G"/>
      <phase duration="9.53650003394" state="y"/>
   </tlLogic>
   <tlLogic id="1271504815" offset="0" programID="0" type="static">
      <phase duration="30.7293227034" state="Gr"/>
      <phase duration="8.12798970035" state="yr"/>
      <phase duration="30.7293227034" state="rG"/>
      <phase duration="8.12798970035" state="ry"/>
   </tlLogic>
   <tlLogic id="1271504816" offset="0" programID="0" type="static">
      <phase duration="8.96571660625" state="G"/>
      <phase duration="6.82172203303" state="y"/>
   </tlLogic>
   <tlLogic id="1271504823" offset="0" programID="0" type="static">
      <phase duration="21.8563938331" state="G"/>
      <phase duration="5.87627785581" state="y"/>
   </tlLogic>
   <tlLogic id="1271504824" offset="0" programID="0" type="static">
      <phase duration="13.9724886188" state="G"/>
      <phase duration="1.20009135064" state="y"/>
   </tlLogic>
   <tlLogic id="1271504827" offset="0" programID="0" type="static">
      <phase duration="25.9854455166" state="Gr"/>
      <phase duration="9.83705074317" state="yr"/>
      <phase duration="25.9854455166" state="rG"/>
      <phase duration="9.83705074317" state="ry"/>
   </tlLogic>
   <tlLogic id="1271504828" offset="0" programID="0" type="static">
      <phase duration="26.0998923804" state="GGrrr"/>
      <phase duration="9.49119960784" state="yyrrr"/>
      <phase duration="26.0998923804" state="rrGrr"/>
      <phase duration="9.49119960784" state="rryrr"/>
      <phase duration="26.0998923804" state="rrrGG"/>
      <phase duration="9.49119960784" state="rrryy"/>
   </tlLogic>
   <tlLogic id="1271504829" offset="0" programID="0" type="static">
      <phase duration="18.3179401742" state="Gr"/>
      <phase duration="5.38781522228" state="yr"/>
      <phase duration="18.3179401742" state="rG"/>
      <phase duration="5.38781522228" state="ry"/>
   </tlLogic>
   <tlLogic id="1271504830" offset="0" programID="0" type="static">
      <phase duration="19.0599242635" state="GGrrr"/>
      <phase duration="9.00015188944" state="yyrrr"/>
      <phase duration="19.0599242635" state="rrGrr"/>
      <phase duration="9.00015188944" state="rryrr"/>
      <phase duration="19.0599242635" state="rrrGG"/>
      <phase duration="9.00015188944" state="rrryy"/>
   </tlLogic>
   <tlLogic id="1271504831" offset="0" programID="0" type="static">
      <phase duration="6.4963924882" state="G"/>
      <phase duration="10.0" state="y"/>
   </tlLogic>
   <tlLogic id="1271504832" offset="0" programID="0" type="static">
      <phase duration="19.482380573" state="Gr"/>
      <phase duration="10.0" state="yr"/>
      <phase duration="19.482380573" state="rG"/>
      <phase duration="10.0" state="ry"/>
   </tlLogic>
   <tlLogic id="1271504834" offset="0" programID="0" type="static">
      <phase duration="9.16343961634" state="G"/>
      <phase duration="4.11176491837" state="y"/>
   </tlLogic>
   <tlLogic id="1271504836" offset="0" programID="0" type="static">
      <phase duration="30.3232274345" state="G"/>
      <phase duration="9.80764543561" state="y"/>
   </tlLogic>
   <tlLogic id="1271504842" offset="0" programID="0" type="static">
      <phase duration="20.0187930149" state="G"/>
      <phase duration="10.0" state="y"/>
   </tlLogic>
   <tlLogic id="1271504849" offset="0" programID="0" type="static">
      <phase duration="13.0752885478" state="GGrrr"/>
      <phase duration="9.37458462751" state="yyrrr"/>
      <phase duration="13.0752885478" state="rrGrr"/>
      <phase duration="9.37458462751" state="rryrr"/>
      <phase duration="13.0752885478" state="rrrGG"/>
      <phase duration="9.37458462751" state="rrryy"/>
   </tlLogic>
   <tlLogic id="1271504850" offset="0" programID="0" type="static">
      <phase duration="28.0416107186" state="Gr"/>
      <phase duration="4.87919081669" state="yr"/>
      <phase duration="28.0416107186" state="rG"/>
      <phase duration="4.87919081669" state="ry"/>
   </tlLogic>
   <tlLogic id="1271504855" offset="0" programID="0" type="static">
      <phase duration="28.25985018" state="Gr"/>
      <phase duration="9.08507056242" state="yr"/>
      <phase duration="28.25985018" state="rG"/>
      <phase duration="9.08507056242" state="ry"/>
   </tlLogic>
   <tlLogic id="1271504861" offset="0" programID="0" type="static">
      <phase duration="27.3617441544" state="G"/>
      <phase duration="2.2125835095" state="y"/>
   </tlLogic>
   <tlLogic id="1271504863" offset="0" programID="0" type="static">
      <phase duration="37.7250123783" state="G"/>
      <phase duration="8.76304704026" state="y"/>
   </tlLogic>
   <tlLogic id="1271504864" offset="0" programID="0" type="static">
      <phase duration="33.4926592006" state="G"/>
      <phase duration="9.11034501531" state="y"/>
   </tlLogic>
   <tlLogic id="1271504866" offset="0" programID="0" type="static">
      <phase duration="11.6065702377" state="G"/>
      <phase duration="9.02605903666" state="y"/>
   </tlLogic>
   <tlLogic id="1271504868" offset="0" programID="0" type="static">
      <phase duration="10.5347048268" state="Gr"/>
      <phase duration="6.18355886189" state="yr"/>
      <phase duration="10.5347048268" state="rG"/>
      <phase duration="6.18355886189" state="ry"/>
   </tlLogic>
   <tlLogic id="1271504870" offset="0" programID="0" type="static">
      <phase duration="34.2148012357" state="G"/>
      <phase duration="9.06691653001" state="y"/>
   </tlLogic>
   <tlLogic id="1271504871" offset="0" programID="0" type="static">
      <phase duration="8.37237472777" state="GGrr"/>
      <phase duration="9.06817185934" state="yyrr"/>
      <phase duration="8.37237472777" state="rrGG"/>
      <phase duration="9.06817185934" state="rryy"/>
   </tlLogic>
   <tlLogic id="1271504873" offset="0" programID="0" type="static">
      <phase duration="26.8728228067" state="GGrrr"/>
      <phase duration="8.66388324743" state="yyrrr"/>
      <phase duration="26.8728228067" state="rrGrr"/>
      <phase duration="8.66388324743" state="rryrr"/>
      <phase duration="26.8728228067" state="rrrGG"/>
      <phase duration="8.66388324743" state="rrryy"/>
   </tlLogic>
   <tlLogic id="1271504884" offset="0" programID="0" type="static">
      <phase duration="17.4082960805" state="G"/>
      <phase duration="9.48426172265" state="y"/>
   </tlLogic>
   <tlLogic id="1271504887" offset="0" programID="0" type="static">
      <phase duration="14.3054839676" state="G"/>
      <phase duration="10.0" state="y"/>
   </tlLogic>
   <tlLogic id="1271504891" offset="0" programID="0" type="static">
      <phase duration="22.9779131431" state="G"/>
      <phase duration="10.0" state="y"/>
   </tlLogic>
   <tlLogic id="1271504895" offset="0" programID="0" type="static">
      <phase duration="9.89911567708" state="GGrrr"/>
      <phase duration="3.04566928365" state="yyrrr"/>
      <phase duration="9.89911567708" state="rrGrr"/>
      <phase duration="3.04566928365" state="rryrr"/>
      <phase duration="9.89911567708" state="rrrGG"/>
      <phase duration="3.04566928365" state="rrryy"/>
   </tlLogic>
   <tlLogic id="1271504898" offset="0" programID="0" type="static">
      <phase duration="23.8433697922" state="Gr"/>
      <phase duration="5.82567844023" state="yr"/>
      <phase duration="23.8433697922" state="rG"/>
      <phase duration="5.82567844023" state="ry"/>
   </tlLogic>
   <tlLogic id="1271504899" offset="0" programID="0" type="static">
      <phase duration="19.8388562167" state="G"/>
      <phase duration="9.97151788665" state="y"/>
   </tlLogic>
   <tlLogic id="1271504901" offset="0" programID="0" type="static">
      <phase duration="27.4684637408" state="GGrrr"/>
      <phase duration="7.56838589906" state="yyrrr"/>
      <phase duration="27.4684637408" state="rrGrr"/>
      <phase duration="7.56838589906" state="rryrr"/>
      <phase duration="27.4684637408" state="rrrGG"/>
      <phase duration="7.56838589906" state="rrryy"/>
   </tlLogic>
   <tlLogic id="1271504908" offset="0" programID="0" type="static">
      <phase duration="21.8362904623" state="G"/>
      <phase duration="8.56929852707" state="y"/>
   </tlLogic>
   <tlLogic id="1299369678" offset="0" programID="0" type="static">
      <phase duration="17.4818323536" state="G"/>
      <phase duration="6.77218453325" state="y"/>
   </tlLogic>
   <tlLogic id="1299369684" offset="0" programID="0" type="static">
      <phase duration="31.1536994748" state="G"/>
      <phase duration="2.34153042428" state="y"/>
   </tlLogic>
   <tlLogic id="1299369689" offset="0" programID="0" type="static">
      <phase duration="20.1624350969" state="GGrrr"/>
      <phase duration="4.32350059841" state="yyrrr"/>
      <phase duration="20.1624350969" state="rrGrr"/>
      <phase duration="4.32350059841" state="rryrr"/>
      <phase duration="20.1624350969" state="rrrGG"/>
      <phase duration="4.32350059841" state="rrryy"/>
   </tlLogic>
   <tlLogic id="1299369691" offset="0" programID="0" type="static">
      <phase duration="22.0838771847" state="Gr"/>
      <phase duration="8.15126805772" state="yr"/>
      <phase duration="22.0838771847" state="rG"/>
      <phase duration="8.15126805772" state="ry"/>
   </tlLogic>
   <tlLogic id="1299369697" offset="0" programID="0" type="static">
      <phase duration="23.2088027878" state="G"/>
      <phase duration="8.22863258951" state="y"/>
   </tlLogic>
   <tlLogic id="1299369699" offset="0" programID="0" type="static">
      <phase duration="28.4873802013" state="G"/>
      <phase duration="9.52822270679" state="y"/>
   </tlLogic>
   <tlLogic id="1299369701" offset="0" programID="0" type="static">
      <phase duration="26.0275774246" state="GGrrr"/>
      <phase duration="1.19895854488" state="yyrrr"/>
      <phase duration="26.0275774246" state="rrGrr"/>
      <phase duration="1.19895854488" state="rryrr"/>
      <phase duration="26.0275774246" state="rrrGG"/>
      <phase duration="1.19895854488" state="rrryy"/>
   </tlLogic>
   <tlLogic id="1312440659" offset="0" programID="0" type="static">
      <phase duration="5.99966043088" state="GGrrr"/>
      <phase duration="10.0" state="yyrrr"/>
      <phase duration="5.99966043088" state="rrGrr"/>
      <phase duration="10.0" state="rryrr"/>
      <phase duration="5.99966043088" state="rrrGG"/>
      <phase duration="10.0" state="rrryy"/>
   </tlLogic>
   <tlLogic id="1312812204" offset="0" programID="0" type="static">
      <phase duration="15.7536610038" state="G"/>
      <phase duration="9.94665558577" state="y"/>
   </tlLogic>
   <tlLogic id="1353566368" offset="0" programID="0" type="static">
      <phase duration="29.3992813768" state="G"/>
      <phase duration="10.0" state="y"/>
   </tlLogic>
   <tlLogic id="1360932319" offset="0" programID="0" type="static"/>
   <tlLogic id="1366801174" offset="0" programID="0" type="static">
      <phase duration="18.262251261" state="G"/>
      <phase duration="1.60973041874" state="y"/>
   </tlLogic>
   <tlLogic id="1366801185" offset="0" programID="0" type="static">
      <phase duration="33.6130498231" state="G"/>
      <phase duration="3.0" state="y"/>
   </tlLogic>
   <tlLogic id="1366801190" offset="0" programID="0" type="static"/>
   <tlLogic id="1366801200" offset="0" programID="0" type="static">
      <phase duration="10.2640517613" state="Gr"/>
      <phase duration="3.90659600684" state="yr"/>
      <phase duration="10.2640517613" state="rG"/>
      <phase duration="3.90659600684" state="ry"/>
   </tlLogic>
   <tlLogic id="1366801262" offset="0" programID="0" type="static">
      <phase duration="18.9695195483" state="G"/>
      <phase duration="7.70957375072" state="y"/>
   </tlLogic>
   <tlLogic id="1366801267" offset="0" programID="0" type="static">
      <phase duration="22.803635905" state="Grr"/>
      <phase duration="6.22406533237" state="yrr"/>
      <phase duration="22.803635905" state="rGr"/>
      <phase duration="6.22406533237" state="ryr"/>
      <phase duration="22.803635905" state="rrG"/>
      <phase duration="6.22406533237" state="rry"/>
   </tlLogic>