<?xml version="1.0" ?>
<tlLogics>
   <tlLogic id="1000099520" offset="0" programID="0" type="static">
      <phase duration="14.6390027004" state="G"/>
      <phase duration="6.78521773693" state="y"/>
   </tlLogic>
   <tlLogic id="1000099544" offset="0" programID="0" type="static">
      <phase duration="13.1004224746" state="GGrrr"/>
      <phase duration="4.45131798985" state="yyrrr"/>
      <phase duration="13.1004224746" state="rrGGr"/>
      <phase duration="4.45131798985" state="rryyr"/>
      <phase duration="13.1004224746" state="rrrrG"/>
      <phase duration="4.45131798985" state="rrrry"/>
   </tlLogic>
   <tlLogic id="1000099551" offset="0" programID="0" type="static">
      <phase duration="38.951309246" state="G"/>
      <phase duration="8.22030991246" state="y"/>
   </tlLogic>
   <tlLogic id="1000099553" offset="0" programID="0" type="static">
      <phase duration="12.2641498276" state="Gr"/>
      <phase duration="3.54125883082" state="yr"/>
      <phase duration="12.2641498276" state="rG"/>
      <phase duration="3.54125883082" state="ry"/>
   </tlLogic>
   <tlLogic id="1000099591" offset="0" programID="0" type="static">
      <phase duration="8.06289022344" state="GGrr"/>
      <phase duration="9.13752513087" state="yyrr"/>
      <phase duration="8.06289022344" state="rrGG"/>
      <phase duration="9.13752513087" state="rryy"/>
   </tlLogic>
   <tlLogic id="1000099650" offset="0" programID="0" type="static">
      <phase duration="24.5694350008" state="G"/>
      <phase duration="9.91424021042" state="y"/>
   </tlLogic>
   <tlLogic id="1000099724" offset="0" programID="0" type="static">
      <phase duration="17.0562860854" state="Grrr"/>
      <phase duration="8.69263923326" state="yrrr"/>
      <phase duration="17.0562860854" state="rGGG"/>
      <phase duration="8.69263923326" state="ryyy"/>
   </tlLogic>
   <tlLogic id="1000099741" offset="0" programID="0" type="static">
      <phase duration="31.4676294403" state="GGrr"/>
      <phase duration="9.89124137062" state="yyrr"/>
      <phase duration="31.4676294403" state="rrGG"/>
      <phase duration="9.89124137062" state="rryy"/>
   </tlLogic>
   <tlLogic id="1000099788" offset="0" programID="0" type="static">
      <phase duration="31.3962991972" state="GGrr"/>
      <phase duration="6.67547957585" state="yyrr"/>
      <phase duration="31.3962991972" state="rrGG"/>
      <phase duration="6.67547957585" state="rryy"/>
   </tlLogic>
   <tlLogic id="1012321567" offset="0" programID="0" type="static">
      <phase duration="21.6248680255" state="Gr"/>
      <phase duration="5.22113357898" state="yr"/>
      <phase duration="21.6248680255" state="rG"/>
      <phase duration="5.22113357898" state="ry"/>
   </tlLogic>
   <tlLogic id="1012321573" offset="0" programID="0" type="static">
      <phase duration="30.470411802" state="Gr"/>
      <phase duration="6.67118605442" state="yr"/>
      <phase duration="30.470411802" state="rG"/>
      <phase duration="6.67118605442" state="ry"/>
   </tlLogic>
   <tlLogic id="1012321580" offset="0" programID="0" type="static">
      <phase duration="37.1704029299" state="Gr"/>
      <phase duration="6.5032099482" state="yr"/>
      <phase duration="37.1704029299" state="rG"/>
      <phase duration="6.5032099482" state="ry"/>
   </tlLogic>
   <tlLogic id="1012326820" offset="0" programID="0" type="static">
      <phase duration="6.29983672575" state="G"/>
      <phase duration="4.10065027265" state="y"/>
   </tlLogic>
   <tlLogic id="1028832186" offset="0" programID="0" type="static"/>
   <tlLogic id="1028832536" offset="0" programID="0" type="static"/>
   <tlLogic id="1037290822" offset="0" programID="0" type="static">
      <phase duration="5.01463566135" state="GGrr"/>
      <phase duration="3.17516168123" state="yyrr"/>
      <phase duration="5.01463566135" state="rrGG"/>
      <phase duration="3.17516168123" state="rryy"/>
   </tlLogic>
   <tlLogic id="1037290863" offset="0" programID="0" type="static">
      <phase duration="30.3188867864" state="GGrr"/>
      <phase duration="7.47547262163" state="yyrr"/>
      <phase duration="30.3188867864" state="rrGG"/>
      <phase duration="7.47547262163" state="rryy"/>
   </tlLogic>
   <tlLogic id="1037290889" offset="0" programID="0" type="static">
      <phase duration="16.1175655446" state="GGrr"/>
      <phase duration="5.83799889796" state="yyrr"/>
      <phase duration="16.1175655446" state="rrGG"/>
      <phase duration="5.83799889796" state="rryy"/>
   </tlLogic>
   <tlLogic id="1037290915" offset="0" programID="0" type="static">
      <phase duration="16.8850910237" state="GGrrr"/>
      <phase duration="6.26024275029" state="yyrrr"/>
      <phase duration="16.8850910237" state="rrGGG"/>
      <phase duration="6.26024275029" state="rryyy"/>
   </tlLogic>
   <tlLogic id="1040964328" offset="0" programID="0" type="static">
      <phase duration="15.6242398446" state="Gr"/>
      <phase duration="4.70230244157" state="yr"/>
      <phase duration="15.6242398446" state="rG"/>
      <phase duration="4.70230244157" state="ry"/>
   </tlLogic>
   <tlLogic id="1040964333" offset="0" programID="0" type="static">
      <phase duration="35.3565767566" state="Gr"/>
      <phase duration="1.56888855362" state="yr"/>
      <phase duration="35.3565767566" state="rG"/>
      <phase duration="1.56888855362" state="ry"/>
   </tlLogic>
   <tlLogic id="1045044692" offset="0" programID="0" type="static">
      <phase duration="22.6272186475" state="Gr"/>
      <phase duration="8.12926410846" state="yr"/>
      <phase duration="22.6272186475" state="rG"/>
      <phase duration="8.12926410846" state="ry"/>
   </tlLogic>
   <tlLogic id="1045044715" offset="0" programID="0" type="static">
      <phase duration="13.7658950864" state="Gr"/>
      <phase duration="9.8770795447" state="yr"/>
      <phase duration="13.7658950864" state="rG"/>
      <phase duration="9.8770795447" state="ry"/>
   </tlLogic>
   <tlLogic id="1045044750" offset="0" programID="0" type="static">
      <phase duration="36.6334016494" state="Gr"/>
      <phase duration="7.10661096642" state="yr"/>
      <phase duration="36.6334016494" state="rG"/>
      <phase duration="7.10661096642" state="ry"/>
   </tlLogic>
   <tlLogic id="1045044803" offset="0" programID="0" type="static">
      <phase duration="17.2895071719" state="Gr"/>
      <phase duration="9.79324964973" state="yr"/>
      <phase duration="17.2895071719" state="rG"/>
      <phase duration="9.79324964973" state="ry"/>
   </tlLogic>
   <tlLogic id="1045044863" offset="0" programID="0" type="static">
      <phase duration="11.6751838387" state="G"/>
      <phase duration="8.43171826812" state="y"/>
   </tlLogic>
   <tlLogic id="1062771951" offset="0" programID="0" type="static">
      <phase duration="16.2586511135" state="GGrr"/>
      <phase duration="7.98965446394" state="yyrr"/>
      <phase duration="16.2586511135" state="rrGG"/>
      <phase duration="7.98965446394" state="rryy"/>
   </tlLogic>
   <tlLogic id="1123630986" offset="0" programID="0" type="static">
      <phase duration="7.30788994368" state="G"/>
      <phase duration="3.97580708609" state="y"/>
   </tlLogic>
   <tlLogic id="1125127500" offset="0" programID="0" type="static">
      <phase duration="24.8192218511" state="GG"/>
      <phase duration="7.7479988791" state="yy"/>
   </tlLogic>
   <tlLogic id="1149210260" offset="0" programID="0" type="static">
      <phase duration="19.4443793129" state="Gr"/>
      <phase duration="3.97871428749" state="yr"/>
      <phase duration="19.4443793129" state="rG"/>
      <phase duration="3.97871428749" state="ry"/>
   </tlLogic>
   <tlLogic id="1150667539" offset="0" programID="0" type="static">
      <phase duration="12.188223502" state="G"/>
      <phase duration="7.20219744494" state="y"/>
   </tlLogic>
   <tlLogic id="1150667552" offset="0" programID="0" type="static">
      <phase duration="3.55795162085" state="Gr"/>
      <phase duration="4.09419491588" state="yr"/>
      <phase duration="3.55795162085" state="rG"/>
      <phase duration="4.09419491588" state="ry"/>
   </tlLogic>
   <tlLogic id="1150667558" offset="0" programID="0" type="static">
      <phase duration="22.6835576259" state="Gr"/>
      <phase duration="9.69374941518" state="yr"/>
      <phase duration="22.6835576259" state="rG"/>
      <phase duration="9.69374941518" state="ry"/>
   </tlLogic>
   <tlLogic id="1150667586" offset="0" programID="0" type="static">
      <phase duration="30.1311761848" state="G"/>
      <phase duration="9.30999066358" state="y"/>
   </tlLogic>
   <tlLogic id="1150667604" offset="0" programID="0" type="static">
      <phase duration="15.0958303162" state="Gr"/>
      <phase duration="6.15222722547" state="yr"/>
      <phase duration="15.0958303162" state="rG"/>
      <phase duration="6.15222722547" state="ry"/>
   </tlLogic>
   <tlLogic id="1150667618" offset="0" programID="0" type="static">
      <phase duration="15.5542809202" state="G"/>
      <phase duration="5.6578333083" state="y"/>
   </tlLogic>
   <tlLogic id="1156723834" offset="0" programID="0" type="static">
      <phase duration="32.4743081044" state="G"/>
      <phase duration="6.83904665779" state="y"/>
   </tlLogic>
   <tlLogic id="1200892937" offset="0" programID="0" type="static">
      <phase duration="33.2077962345" state="G"/>
      <phase duration="2.60150057385" state="y"/>
   </tlLogic>
   <tlLogic id="1201745377" offset="0" programID="0" type="static">
      <phase duration="7.1141071795" state="G"/>
      <phase duration="3.89816639726" state="y"/>
   </tlLogic>
   <tlLogic id="1211136595" offset="0" programID="0" type="static">
      <phase duration="36.3893533941" state="G"/>
      <phase duration="8.5808449824" state="y"/>
   </tlLogic>
   <tlLogic id="1220020630" offset="0" programID="0" type="static">
      <phase duration="10.7698556404" state="Gr"/>
      <phase duration="3.87785131285" state="yr"/>
      <phase duration="10.7698556404" state="rG"/>
      <phase duration="3.87785131285" state="ry"/>
   </tlLogic>
   <tlLogic id="1220020673" offset="0" programID="0" type="static">
      <phase duration="22.1266974806" state="GGGrrrrrr"/>
      <phase duration="6.50130478192" state="yyyrrrrrr"/>
      <phase duration="22.1266974806" state="rrrGGGrrr"/>
      <phase duration="6.50130478192" state="rrryyyrrr"/>
      <phase duration="22.1266974806" state="rrrrrrGGG"/>
      <phase duration="6.50130478192" state="rrrrrryyy"/>
   </tlLogic>
   <tlLogic id="1229522509" offset="0" programID="0" type="static">
      <phase duration="21.8483643143" state="G"/>
      <phase duration="5.92056292129" state="y"/>
   </tlLogic>
   <tlLogic id="1252285082" offset="0" programID="0" type="static">
      <phase duration="25.0778410283" state="G"/>
      <phase duration="4.33493022457" state="y"/>
   </tlLogic>
   <tlLogic id="1252285087" offset="0" programID="0" type="static"/>
   <tlLogic id="1252285093" offset="0" programID="0" type="static">
      <phase duration="21.8978838864" state="Gr"/>
      <phase duration="3.66725081993" state="yr"/>
      <phase duration="21.8978838864" state="rG"/>
      <phase duration="3.66725081993" state="ry"/>
   </tlLogic>
   <tlLogic id="1252285105" offset="0" programID="0" type="static">
      <phase duration="18.3705470523" state="G"/>
      <phase duration="8.32993385201" state="y"/>
   </tlLogic>
   <tlLogic id="1252285107" offset="0" programID="0" type="static">
      <phase duration="18.2563530628" state="G"/>
      <phase duration="5.71757868847" state="y"/>
   </tlLogic>
   <tlLogic id="1252285137" offset="0" programID="0" type="static">
      <phase duration="17.6535526624" state="Gr"/>
      <phase duration="7.73628077727" state="yr"/>
      <phase duration="17.6535526624" state="rG"/>
      <phase duration="7.73628077727" state="ry"/>
   </tlLogic>
   <tlLogic id="1252285138" offset="0" programID="0" type="static">
      <phase duration="22.1356579959" state="G"/>
      <phase duration="4.52202806463" state="y"/>
   </tlLogic>
   <tlLogic id="1271504743" offset="0" programID="0" type="static">
      <phase duration="21.9693270195" state="G"/>
      <phase duration="4.91807048471" state="y"/>
   </tlLogic>
   <tlLogic id="1271504747" offset="0" programID="0" type="static">
      <phase duration="23.2653424757" state="Gr"/>
      <phase duration="4.92193707895" state="yr"/>
      <phase duration="23.2653424757" state="rG"/>
      <phase duration="4.92193707895" state="ry"/>
   </tlLogic>
   <tlLogic id="1271504750" offset="0" programID="0" type="static">
      <phase duration="4.57542208372" state="G"/>
      <phase duration="8.5051238141" state="y"/>
   </tlLogic>
   <tlLogic id="1271504755" offset="0" programID="0" type="static">
      <phase duration="25.867446019" state="GGrrr"/>
      <phase duration="1.09702794079" state="yyrrr"/>
      <phase duration="25.867446019" state="rrGrr"/>
      <phase duration="1.09702794079" state="rryrr"/>
      <phase duration="25.867446019" state="rrrGG"/>
      <phase duration="1.09702794079" state="rrryy"/>
   </tlLogic>
   <tlLogic id="1271504756" offset="0" programID="0" type="static">
      <phase duration="29.3028541778" state="Gr"/>
      <phase duration="9.07603911988" state="yr"/>
      <phase duration="29.3028541778" state="rG"/>
      <phase duration="9.07603911988" state="ry"/>
   </tlLogic>
   <tlLogic id="1271504757" offset="0" programID="0" type="static">
      <phase duration="17.9795836394" state="GGrrr"/>
      <phase duration="3.82343819181" state="yyrrr"/>
      <phase duration="17.9795836394" state="rrGrr"/>
      <phase duration="3.82343819181" state="rryrr"/>
      <phase duration="17.9795836394" state="rrrGG"/>
      <phase duration="3.82343819181" state="rrryy"/>
   </tlLogic>
   <tlLogic id="1271504758" offset="0" programID="0" type="static">
      <phase duration="28.2836013149" state="G"/>
      <phase duration="4.93533795048" state="y"/>
   </tlLogic>
   <tlLogic id="1271504766" offset="0" programID="0" type="static">
      <phase duration="13.6522050378" state="Gr"/>
      <phase duration="4.3097696284" state="yr"/>
      <phase duration="13.6522050378" state="rG"/>
      <phase duration="4.3097696284" state="ry"/>
   </tlLogic>
   <tlLogic id="1271504767" offset="0" programID="0" type="static">
      <phase duration="21.3175203548" state="G"/>
      <phase duration="8.58026173766" state="y"/>
   </tlLogic>
   <tlLogic id="1271504768" offset="0" programID="0" type="static">
      <phase duration="27.2091608018" state="Gr"/>
      <phase duration="9.67534437327" state="yr"/>
      <phase duration="27.2091608018" state="rG"/>
      <phase duration="9.67534437327" state="ry"/>
   </tlLogic>
   <tlLogic id="1271504773" offset="0" programID="0" type="static">
      <phase duration="25.2853882904" state="GGrrr"/>
      <phase duration="2.59863337921" state="yyrrr"/>
      <phase duration="25.2853882904" state="rrGrr"/>
      <phase duration="2.59863337921" state="rryrr"/>
      <phase duration="25.2853882904" state="rrrGG"/>
      <phase duration="2.59863337921" state="rrryy"/>
   </tlLogic>
   <tlLogic id="1271504774" offset="0" programID="0" type="static">
      <phase duration="19.8143568108" state="G"/>
      <phase duration="7.456393526" state="y"/>
   </tlLogic>
   <tlLogic id="1271504778" offset="0" programID="0" type="static">
      <phase duration="21.1825055289" state="G"/>
      <phase duration="9.48966224995" state="y"/>
   </tlLogic>
   <tlLogic id="1271504781" offset="0" programID="0" type="static">
      <phase duration="22.368467695" state="GGrrr"/>
      <phase duration="5.18536126325" state="yyrrr"/>
      <phase duration="22.368467695" state="rrGrr"/>
      <phase duration="5.18536126325" state="rryrr"/>
      <phase duration="22.368467695" state="rrrGG"/>
      <phase duration="5.18536126325" state="rrryy"/>
   </tlLogic>
   <tlLogic id="1271504788" offset="0" programID="0" type="static">
      <phase duration="15.2570816947" state="GGrrr"/>
      <phase duration="4.42589249513" state="yyrrr"/>
      <phase duration="15.2570816947" state="rrGGG"/>
      <phase duration="4.42589249513" state="rryyy"/>
   </tlLogic>
   <tlLogic id="1271504797" offset="0" programID="0" type="static">
      <phase duration="24.427979889" state="Gr"/>
      <phase duration="4.79923965799" state="yr"/>
      <phase duration="24.427979889" state="rG"/>
      <phase duration="4.79923965799" state="ry"/>
   </tlLogic>
   <tlLogic id="1271504804" offset="0" programID="0" type="static">
      <phase duration="24.949113248" state="Gr"/>
      <phase duration="7.38234062105" state="yr"/>
      <phase duration="24.949113248" state="rG"/>
      <phase duration="7.38234062105" state="ry"/>
   </tlLogic>
   <tlLogic id="1271504813" offset="0" programID="0" type="static">
      <phase duration="11.9673695422" state="G"/>
      <phase duration="7.22966367023" state="y"/>
   </tlLogic>
   <tlLogic id="1271504816" offset="0" programID="0" type="static">
      <phase duration="15.7057055934" state="G"/>
      <phase duration="9.7206793067" state="y"/>
   </tlLogic>
   <tlLogic id="1271504819" offset="0" programID="0" type="static">
      <phase duration="6.82618676145" state="Gr"/>
      <phase duration="7.09706775823" state="yr"/>
      <phase duration="6.82618676145" state="rG"/>
      <phase duration="7.09706775823" state="ry"/>
   </tlLogic>
   <tlLogic id="1271504822" offset="0" programID="0" type="static">
      <phase duration="20.5788559851" state="G"/>
      <phase duration="6.93088246996" state="y"/>
   </tlLogic>
   <tlLogic id="1271504823" offset="0" programID="0" type="static">
      <phase duration="36.9039341049" state="G"/>
      <phase duration="5.3942201965" state="y"/>
   </tlLogic>
   <tlLogic id="1271504824" offset="0" programID="0" type="static">
      <phase duration="11.5296727033" state="G"/>
      <phase duration="3.71972393148" state="y"/>
   </tlLogic>
   <tlLogic id="1271504827" offset="0" programID="0" type="static">
      <phase duration="18.0404076016" state="Gr"/>
      <phase duration="5.00288133526" state="yr"/>
      <phase duration="18.0404076016" state="rG"/>
      <phase duration="5.00288133526" state="ry"/>
   </tlLogic>
   <tlLogic id="1271504828" offset="0" programID="0" type="static">
      <phase duration="19.8300510522" state="GGrrr"/>
      <phase duration="9.99594051455" state="yyrrr"/>
      <phase duration="19.8300510522" state="rrGrr"/>
      <phase duration="9.99594051455" state="rryrr"/>
      <phase duration="19.8300510522" state="rrrGG"/>
      <phase duration="9.99594051455" state="rrryy"/>
   </tlLogic>
   <tlLogic id="1271504829" offset="0" programID="0" type="static">
      <phase duration="26.8399375578" state="Gr"/>
      <phase duration="6.36362754151" state="yr"/>
      <phase duration="26.8399375578" state="rG"/>
      <phase duration="6.36362754151" state="ry"/>
   </tlLogic>
   <tlLogic id="1271504832" offset="0" programID="0" type="static">
      <phase duration="20.0885219173" state="Gr"/>
      <phase duration="9.00887369128" state="yr"/>
      <phase duration="20.0885219173" state="rG"/>
      <phase duration="9.00887369128" state="ry"/>
   </tlLogic>
   <tlLogic id="1271504843" offset="0" programID="0" type="static">
      <phase duration="29.2050545751" state="Gr"/>
      <phase duration="6.60724715425" state="yr"/>
      <phase duration="29.2050545751" state="rG"/>
      <phase duration="6.60724715425" state="ry"/>
   </tlLogic>
   <tlLogic id="1271504850" offset="0" programID="0" type="static">
      <phase duration="28.4102145647" state="Gr"/>
      <phase duration="4.54364428354" state="yr"/>
      <phase duration="28.4102145647" state="rG"/>
      <phase duration="4.54364428354" state="ry"/>
   </tlLogic>
   <tlLogic id="1271504855" offset="0" programID="0" type="static">
      <phase duration="22.1128447258" state="Gr"/>
      <phase duration="8.50338445501" state="yr"/>
      <phase duration="22.1128447258" state="rG"/>
      <phase duration="8.50338445501" state="ry"/>
   </tlLogic>
   <tlLogic id="1271504858" offset="0" programID="0" type="static">
      <phase duration="36.3720806642" state="G"/>
      <phase duration="6.83080084849" state="y"/>
   </tlLogic>
   <tlLogic id="1271504861" offset="0" programID="0" type="static">
      <phase duration="28.0559913179" state="G"/>
      <phase duration="6.23170124205" state="y"/>
   </tlLogic>
   <tlLogic id="1271504863" offset="0" programID="0" type="static">
      <phase duration="29.8490808779" state="G"/>
      <phase duration="8.89280886122" state="y"/>
   </tlLogic>
   <tlLogic id="1271504866" offset="0" programID="0" type="static">
      <phase duration="21.0204841001" state="G"/>
      <phase duration="9.70252089094" state="y"/>
   </tlLogic>
   <tlLogic id="1271504868" offset="0" programID="0" type="static">
      <phase duration="20.2326425554" state="Gr"/>
      <phase duration="9.10883240369" state="yr"/>
      <phase duration="20.2326425554" state="rG"/>
      <phase duration="9.10883240369" state="ry"/>
   </tlLogic>
   <tlLogic id="1271504873" offset="0" programID="0" type="static">
      <phase duration="14.686248901" state="GGrrr"/>
      <phase duration="7.54972190858" state="yyrrr"/>
      <phase duration="14.686248901" state="rrGrr"/>
      <phase duration="7.54972190858" state="rryrr"/>
      <phase duration="14.686248901" state="rrrGG"/>
      <phase duration="7.54972190858" state="rrryy"/>
   </tlLogic>
   <tlLogic id="1271504875" offset="0" programID="0" type="static">
      <phase duration="27.0000734808" state="G"/>
      <phase duration="2.75558186254" state="y"/>
   </tlLogic>
   <tlLogic id="1271504878" offset="0" programID="0" type="static">
      <phase duration="24.5922822399" state="G"/>
      <phase duration="7.00510543616" state="y"/>
   </tlLogic>
   <tlLogic id="1271504881" offset="0" programID="0" type="static">
      <phase duration="12.5075221648" state="GGrrr"/>
      <phase duration="9.4444505789" state="yyrrr"/>
      <phase duration="12.5075221648" state="rrGrr"/>
      <phase duration="9.4444505789" state="rryrr"/>
      <phase duration="12.5075221648" state="rrrGG"/>
      <phase duration="9.4444505789" state="rrryy"/>
   </tlLogic>
   <tlLogic id="1271504884" offset="0" programID="0" type="static">
      <phase duration="14.1827099151" state="G"/>
      <phase duration="7.69852646288" state="y"/>
   </tlLogic>
   <tlLogic id="1271504887" offset="0" programID="0" type="static">
      <phase duration="27.1987811049" state="G"/>
      <phase duration="8.48300199197" state="y"/>
   </tlLogic>
   <tlLogic id="1271504889" offset="0" programID="0" type="static">
      <phase duration="17.9093023519" state="Gr"/>
      <phase duration="4.31534984745" state="yr"/>
      <phase duration="17.9093023519" state="rG"/>
      <phase duration="4.31534984745" state="ry"/>
   </tlLogic>
   <tlLogic id="1271504893" offset="0" programID="0" type="static">
      <phase duration="32.7911604593" state="GGrrr"/>
      <phase duration="4.79666308503" state="yyrrr"/>
      <phase duration="32.7911604593" state="rrGrr"/>
      <phase duration="4.79666308503" state="rryrr"/>
      <phase duration="32.7911604593" state="rrrGG"/>
      <phase duration="4.79666308503" state="rrryy"/>
   </tlLogic>
   <tlLogic id="1271504898" offset="0" programID="0" type="static">
      <phase duration="33.3077410738" state="Gr"/>
      <phase duration="9.81498882165" state="yr"/>
      <phase duration="33.3077410738" state="rG"/>
      <phase duration="9.81498882165" state="ry"/>
   </tlLogic>
   <tlLogic id="1271504899" offset="0" programID="0" type="static">
      <phase duration="21.8880237082" state="G"/>
      <phase duration="8.93394934143" state="y"/>
   </tlLogic>
   <tlLogic id="1271504904" offset="0" programID="0" type="static">
      <phase duration="15.3619415107" state="Grr"/>
      <phase duration="9.24083951502" state="yrr"/>
      <phase duration="15.3619415107" state="rGG"/>
      <phase duration="9.24083951502" state="ryy"/>
   </tlLogic>
   <tlLogic id="1271504905" offset="0" programID="0" type="static">
      <phase duration="31.2383227373" state="G"/>
      <phase duration="9.73628748009" state="y"/>
   </tlLogic>
   <tlLogic id="1271504907" offset="0" programID="0" type="static">
      <phase duration="35.3420882628" state="G"/>
      <phase duration="7.72206589552" state="y"/>
   </tlLogic>
   <tlLogic id="1271504908" offset="0" programID="0" type="static">
      <phase duration="17.7635969651" state="G"/>
      <phase duration="1.89227301782" state="y"/>
   </tlLogic>
   <tlLogic id="1271504910" offset="0" programID="0" type="static">
      <phase duration="23.4397138488" state="Gr"/>
      <phase duration="7.19949341695" state="yr"/>
      <phase duration="23.4397138488" state="rG"/>
      <phase duration="7.19949341695" state="ry"/>
   </tlLogic>
   <tlLogic id="1298727142" offset="0" programID="0" type="static">
      <phase duration="17.1748262164" state="Gr"/>
      <phase duration="8.14247224401" state="yr"/>
      <phase duration="17.1748262164" state="rG"/>
      <phase duration="8.14247224401" state="ry"/>
   </tlLogic>
   <tlLogic id="1299369678" offset="0" programID="0" type="static">
      <phase duration="27.3355120236" state="G"/>
      <phase duration="3.91146378449" state="y"/>
   </tlLogic>
   <tlLogic id="1299369684" offset="0" programID="0" type="static">
      <phase duration="32.0896396619" state="G"/>
      <phase duration="9.76862152953" state="y"/>
   </tlLogic>
   <tlLogic id="1299369686" offset="0" programID="0" type="static">
      <phase duration="28.1020145624" state="G"/>
      <phase duration="2.23848643796" state="y"/>
   </tlLogic>
   <tlLogic id="1299369689" offset="0" programID="0" type="static">
      <phase duration="25.9114898377" state="GGrrr"/>
      <phase duration="6.12309412568" state="yyrrr"/>
      <phase duration="25.9114898377" state="rrGrr"/>
      <phase duration="6.12309412568" state="rryrr"/>
      <phase duration="25.9114898377" state="rrrGG"/>
      <phase duration="6.12309412568" state="rrryy"/>
   </tlLogic>
   <tlLogic id="1299369699" offset="0" programID="0" type="static">
      <phase duration="19.7169520011" state="G"/>
      <phase duration="6.43079256147" state="y"/>
   </tlLogic>
   <tlLogic id="1312812204" offset="0" programID="0" type="static">
      <phase duration="28.3699392541" state="G"/>
      <phase duration="7.03578727129" state="y"/>
   </tlLogic>
   <tlLogic id="1353566368" offset="0" programID="0" type="static">
      <phase duration="24.1278623662" state="G"/>
      <phase duration="5.42549986119" state="y"/>
   </tlLogic>
   <tlLogic id="1353566371" offset="0" programID="0" type="static">
      <phase duration="10.0768745004" state="G"/>
      <phase duration="9.75595557986" state="y"/>
   </tlLogic>
   <tlLogic id="1360932319" offset="0" programID="0" type="static"/>
   <tlLogic id="1366801174" offset="0" programID="0" type="static">
      <phase duration="8.9251328839" state="G"/>
      <phase duration="6.1595076098" state="y"/>
   </tlLogic>
   <tlLogic id="1366801185" offset="0" programID="0" type="static">
      <phase duration="30.5987098323" state="G"/>
      <phase duration="6.57897051016" state="y"/>
   </tlLogic>
   <tlLogic id="1366801190" offset="0" programID="0" type="static"/>
   <tlLogic id="1366801221" offset="0" programID="0" type="static">
      <phase duration="20.3844140592" state="Gr"/>
      <phase duration="9.75893995879" state="yr"/>
      <phase duration="20.3844140592" state="rG"/>
      <phase duration="9.75893995879" state="ry"/>
   </tlLogic>
   <tlLogic id="1492679675" offset="0" programID="0" type="static">
      <phase duration="17.9527921173" state="Gr"/>
      <phase duration="1.75869431914" state="yr"/>
      <phase duration="17.9527921173" state="rG"/>
      <phase duration="1.75869431914" state="ry"/>
   </tlLogic>
   <tlLogic id="1492679681" offset="0" programID="0" type="static">
      <phase duration="17.1942394294" state="G"/>
      <phase duration="7.92051605267" state="y"/>
   </tlLogic>
   <tlLogic id="1492679696" offset="0" programID="0" type="static">
      <phase duration="34.2584078537" state="Gr"/>
      <phase duration="4.25030828842" state="yr"/>
      <phase duration="34.2584078537" state="rG"/>
      <phase duration="4.25030828842" state="ry"/>
   </tlLogic>
   <tlLogic id="1492679714" offset="0" programID="0" type="static">
      <phase duration="23.7396898347" state="Gr"/>
      <phase duration="3.82639626942" state="yr"/>
      <phase duration="23.7396898347" state="rG"/>
      <phase duration="3.82639626942" state="ry"/>
   </tlLogic>
   <tlLogic id="1492679718" offset="0" programID="0" type="static"/>
   <tlLogic id="1492679723" offset="0" programID="0" type="static">
      <phase duration="21.8374650899" state="GGrrr"/>
      <phase duration="7.80974996958" state="yyrrr"/>
      <phase duration="21.8374650899" state="rrGrr"/>
      <phase duration="7.80974996958" state="rryrr"/>
      <phase duration="21.8374650899" state="rrrGG"/>
      <phase duration="7.80974996958" state="rrryy"/>
   </tlLogic>
   <tlLogic id="1492679733" offset="0" programID="0" type="static">
      <phase duration="24.558427921" state="Gr"/>
      <phase duration="1.53115521759" state="yr"/>
      <phase duration="24.558427921" state="rG"/>
      <phase duration="1.53115521759" state="ry"/>
   </tlLogic>
   <tlLogic id="1492679749" offset="0" programID="0" type="static">
      <phase duration="30.6958792934" state="GGrrr"/>
      <phase duration="8.783295134" state="yyrrr"/>
      <phase duration="30.6958792934" state="rrGGr"/>
      <phase duration="8.783295134" state="rryyr"/>
      <phase duration="30.6958792934" state="rrrrG"/>
      <phase duration="8.783295134" state="rrrry"/>
   </tlLogic>
   <tlLogic id="1492679753" offset="0" programID="0" type="static">
      <phase duration="19.0605354563" state="G"/>