<?xml version="1.0" ?>
<tlLogics>
   <tlLogic id="1000099468" offset="0" programID="0" type="static">
      <phase duration="18.3453415726" state="G"/>
      <phase duration="6.23768337305" state="y"/>
   </tlLogic>
   <tlLogic id="1000099544" offset="0" programID="0" type="static">
      <phase duration="11.2467759051" state="GGrrr"/>
      <phase duration="8.98729018862" state="yyrrr"/>
      <phase duration="11.2467759051" state="rrGGr"/>
      <phase duration="8.98729018862" state="rryyr"/>
      <phase duration="11.2467759051" state="rrrrG"/>
      <phase duration="8.98729018862" state="rrrry"/>
   </tlLogic>
   <tlLogic id="1000099551" offset="0" programID="0" type="static">
      <phase duration="3.44322194835" state="G"/>
      <phase duration="7.92139146083" state="y"/>
   </tlLogic>
   <tlLogic id="1000099553" offset="0" programID="0" type="static">
      <phase duration="22.0687954265" state="Gr"/>
      <phase duration="2.0013224455" state="yr"/>
      <phase duration="22.0687954265" state="rG"/>
      <phase duration="2.0013224455" state="ry"/>
   </tlLogic>
   <tlLogic id="1000099576" offset="0" programID="0" type="static">
      <phase duration="23.4461288068" state="Grrrr"/>
      <phase duration="7.47743453691" state="yrrrr"/>
      <phase duration="23.4461288068" state="rGGrr"/>
      <phase duration="7.47743453691" state="ryyrr"/>
      <phase duration="23.4461288068" state="rrrGG"/>
      <phase duration="7.47743453691" state="rrryy"/>
   </tlLogic>
   <tlLogic id="1000099591" offset="0" programID="0" type="static">
      <phase duration="8.24319827616" state="GGrr"/>
      <phase duration="9.29208652326" state="yyrr"/>
      <phase duration="8.24319827616" state="rrGG"/>
      <phase duration="9.29208652326" state="rryy"/>
   </tlLogic>
   <tlLogic id="1000099607" offset="0" programID="0" type="static">
      <phase duration="33.3376054962" state="GGr"/>
      <phase duration="6.95946182817" state="yyr"/>
      <phase duration="33.3376054962" state="rrG"/>
      <phase duration="6.95946182817" state="rry"/>
   </tlLogic>
   <tlLogic id="1000099650" offset="0" programID="0" type="static">
      <phase duration="24.9323941588" state="G"/>
      <phase duration="8.84942437348" state="y"/>
   </tlLogic>
   <tlLogic id="1000099651" offset="0" programID="0" type="static">
      <phase duration="3.00418253076" state="GGrrrr"/>
      <phase duration="7.99565091846" state="yyrrrr"/>
      <phase duration="3.00418253076" state="rrGGrr"/>
      <phase duration="7.99565091846" state="rryyrr"/>
      <phase duration="3.00418253076" state="rrrrGG"/>
      <phase duration="7.99565091846" state="rrrryy"/>
   </tlLogic>
   <tlLogic id="1000099724" offset="0" programID="0" type="static">
      <phase duration="7.55723416292" state="Grrr"/>
      <phase duration="8.19678240285" state="yrrr"/>
      <phase duration="7.55723416292" state="rGGG"/>
      <phase duration="8.19678240285" state="ryyy"/>
   </tlLogic>
   <tlLogic id="1000099788" offset="0" programID="0" type="static">
      <phase duration="28.4540726913" state="GGrr"/>
      <phase duration="7.68648243844" state="yyrr"/>
      <phase duration="28.4540726913" state="rrGG"/>
      <phase duration="7.68648243844" state="rryy"/>
   </tlLogic>
   <tlLogic id="1040964328" offset="0" programID="0" type="static">
      <phase duration="4.45771044497" state="Gr"/>
      <phase duration="9.3501990587" state="yr"/>
      <phase duration="4.45771044497" state="rG"/>
      <phase duration="9.3501990587" state="ry"/>
   </tlLogic>
   <tlLogic id="1045044692" offset="0" programID="0" type="static">
      <phase duration="18.064546574" state="Gr"/>
      <phase duration="9.93157100596" state="yr"/>
      <phase duration="18.064546574" state="rG"/>
      <phase duration="9.93157100596" state="ry"/>
   </tlLogic>
   <tlLogic id="1045044715" offset="0" programID="0" type="static">
      <phase duration="26.9657659416" state="Gr"/>
      <phase duration="2.4966624579" state="yr"/>
      <phase duration="26.9657659416" state="rG"/>
      <phase duration="2.4966624579" state="ry"/>
   </tlLogic>
   <tlLogic id="1045044803" offset="0" programID="0" type="static">
      <phase duration="24.5330609972" state="Gr"/>
      <phase duration="6.17156458353" state="yr"/>
      <phase duration="24.5330609972" state="rG"/>
      <phase duration="6.17156458353" state="ry"/>
   </tlLogic>
   <tlLogic id="1045044863" offset="0" programID="0" type="static">
      <phase duration="16.9707383281" state="G"/>
      <phase duration="5.26133515733" state="y"/>
   </tlLogic>
   <tlLogic id="1062771990" offset="0" programID="0" type="static">
      <phase duration="26.405014152" state="G"/>
      <phase duration="8.5506059043" state="y"/>
   </tlLogic>
   <tlLogic id="1109589944" offset="0" programID="0" type="static">
      <phase duration="4.82788416907" state="GGGrrrrrr"/>
      <phase duration="9.66558999502" state="yyyrrrrrr"/>
      <phase duration="4.82788416907" state="rrrGGGrrr"/>
      <phase duration="9.66558999502" state="rrryyyrrr"/>
      <phase duration="4.82788416907" state="rrrrrrGGG"/>
      <phase duration="9.66558999502" state="rrrrrryyy"/>
   </tlLogic>
   <tlLogic id="1123630986" offset="0" programID="0" type="static">
      <phase duration="37.4365106657" state="G"/>
      <phase duration="5.76952760647" state="y"/>
   </tlLogic>
   <tlLogic id="1125127500" offset="0" programID="0" type="static">
      <phase duration="24.5139139846" state="GG"/>
      <phase duration="8.4237067597" state="yy"/>
   </tlLogic>
   <tlLogic id="1150667539" offset="0" programID="0" type="static">
      <phase duration="11.4270300559" state="G"/>
      <phase duration="6.71347085038" state="y"/>
   </tlLogic>
   <tlLogic id="1150667540" offset="0" programID="0" type="static">
      <phase duration="21.4091996034" state="G"/>
      <phase duration="7.21004610244" state="y"/>
   </tlLogic>
   <tlLogic id="1150667555" offset="0" programID="0" type="static">
      <phase duration="35.8569866818" state="Gr"/>
      <phase duration="8.16276843119" state="yr"/>
      <phase duration="35.8569866818" state="rG"/>
      <phase duration="8.16276843119" state="ry"/>
   </tlLogic>
   <tlLogic id="1150667558" offset="0" programID="0" type="static">
      <phase duration="4.89506696433" state="Gr"/>
      <phase duration="3.26149161467" state="yr"/>
      <phase duration="4.89506696433" state="rG"/>
      <phase duration="3.26149161467" state="ry"/>
   </tlLogic>
   <tlLogic id="1150667560" offset="0" programID="0" type="static">
      <phase duration="29.8975135475" state="G"/>
      <phase duration="8.06393474995" state="y"/>
   </tlLogic>
   <tlLogic id="1150667568" offset="0" programID="0" type="static"/>
   <tlLogic id="1150667603" offset="0" programID="0" type="static">
      <phase duration="21.3199016136" state="Gr"/>
      <phase duration="7.53665474037" state="yr"/>
      <phase duration="21.3199016136" state="rG"/>
      <phase duration="7.53665474037" state="ry"/>
   </tlLogic>
   <tlLogic id="1150667604" offset="0" programID="0" type="static">
      <phase duration="16.4587675088" state="Gr"/>
      <phase duration="6.64275747395" state="yr"/>
      <phase duration="16.4587675088" state="rG"/>
      <phase duration="6.64275747395" state="ry"/>
   </tlLogic>
   <tlLogic id="1150667608" offset="0" programID="0" type="static">
      <phase duration="26.2793192099" state="Gr"/>
      <phase duration="9.14560641642" state="yr"/>
      <phase duration="26.2793192099" state="rG"/>
      <phase duration="9.14560641642" state="ry"/>
   </tlLogic>
   <tlLogic id="1156723839" offset="0" programID="0" type="static">
      <phase duration="22.0412528874" state="Gr"/>
      <phase duration="9.92008170565" state="yr"/>
      <phase duration="22.0412528874" state="rG"/>
      <phase duration="9.92008170565" state="ry"/>
   </tlLogic>
   <tlLogic id="1201745377" offset="0" programID="0" type="static">
      <phase duration="15.2503643794" state="G"/>
      <phase duration="8.980638694" state="y"/>
   </tlLogic>
   <tlLogic id="1211136595" offset="0" programID="0" type="static">
      <phase duration="36.2986418872" state="G"/>
      <phase duration="6.58317443965" state="y"/>
   </tlLogic>
   <tlLogic id="1220020505" offset="0" programID="0" type="static">
      <phase duration="22.3721524026" state="G"/>
      <phase duration="3.10256174386" state="y"/>
   </tlLogic>
   <tlLogic id="1220020545" offset="0" programID="0" type="static">
      <phase duration="19.761588589" state="GGrrr"/>
      <phase duration="3.39122936427" state="yyrrr"/>
      <phase duration="19.761588589" state="rrGrr"/>
      <phase duration="3.39122936427" state="rryrr"/>
      <phase duration="19.761588589" state="rrrGG"/>
      <phase duration="3.39122936427" state="rrryy"/>
   </tlLogic>
   <tlLogic id="1220020592" offset="0" programID="0" type="static">
      <phase duration="33.6141864072" state="Gr"/>
      <phase duration="5.17923696952" state="yr"/>
      <phase duration="33.6141864072" state="rG"/>
      <phase duration="5.17923696952" state="ry"/>
   </tlLogic>
   <tlLogic id="1220020607" offset="0" programID="0" type="static">
      <phase duration="33.5955694111" state="GGrr"/>
      <phase duration="4.0066872821" state="yyrr"/>
      <phase duration="33.5955694111" state="rrGG"/>
      <phase duration="4.0066872821" state="rryy"/>
   </tlLogic>
   <tlLogic id="1220020656" offset="0" programID="0" type="static">
      <phase duration="16.4104836789" state="GGrr"/>
      <phase duration="6.7764596071" state="yyrr"/>
      <phase duration="16.4104836789" state="rrGG"/>
      <phase duration="6.7764596071" state="rryy"/>
   </tlLogic>
   <tlLogic id="1220020673" offset="0" programID="0" type="static">
      <phase duration="27.1900692584" state="GGGrrrrrr"/>
      <phase duration="7.8859817961" state="yyyrrrrrr"/>
      <phase duration="27.1900692584" state="rrrGGGrrr"/>
      <phase duration="7.8859817961" state="rrryyyrrr"/>
      <phase duration="27.1900692584" state="rrrrrrGGG"/>
      <phase duration="7.8859817961" state="rrrrrryyy"/>
   </tlLogic>
   <tlLogic id="1220020679" offset="0" programID="0" type="static">
      <phase duration="18.9306025583" state="GGrr"/>
      <phase duration="7.12598454466" state="yyrr"/>
      <phase duration="18.9306025583" state="rrGG"/>
      <phase duration="7.12598454466" state="rryy"/>
   </tlLogic>
   <tlLogic id="1229522502" offset="0" programID="0" type="static">
      <phase duration="20.8720481162" state="Gr"/>
      <phase duration="3.80155638787" state="yr"/>
      <phase duration="20.8720481162" state="rG"/>
      <phase duration="3.80155638787" state="ry"/>
   </tlLogic>
   <tlLogic id="1229522552" offset="0" programID="0" type="static">
      <phase duration="12.8588453077" state="G"/>
      <phase duration="8.79147026179" state="y"/>
   </tlLogic>
   <tlLogic id="1229522554" offset="0" programID="0" type="static">
      <phase duration="4.06686098079" state="G"/>
      <phase duration="4.16691031874" state="y"/>
   </tlLogic>
   <tlLogic id="1252285082" offset="0" programID="0" type="static">
      <phase duration="34.0725421689" state="G"/>
      <phase duration="3.56840122088" state="y"/>
   </tlLogic>
   <tlLogic id="1252285085" offset="0" programID="0" type="static">
      <phase duration="8.86167455904" state="Gr"/>
      <phase duration="8.06131982945" state="yr"/>
      <phase duration="8.86167455904" state="rG"/>
      <phase duration="8.06131982945" state="ry"/>
   </tlLogic>
   <tlLogic id="1252285093" offset="0" programID="0" type="static">
      <phase duration="7.83016959162" state="Gr"/>
      <phase duration="4.39868155457" state="yr"/>
      <phase duration="7.83016959162" state="rG"/>
      <phase duration="4.39868155457" state="ry"/>
   </tlLogic>
   <tlLogic id="1252285107" offset="0" programID="0" type="static">
      <phase duration="17.8129943288" state="G"/>
      <phase duration="5.33572164427" state="y"/>
   </tlLogic>
   <tlLogic id="1252285133" offset="0" programID="0" type="static">
      <phase duration="22.1824719744" state="Gr"/>
      <phase duration="6.70713506615" state="yr"/>
      <phase duration="22.1824719744" state="rG"/>
      <phase duration="6.70713506615" state="ry"/>
   </tlLogic>
   <tlLogic id="1252285137" offset="0" programID="0" type="static">
      <phase duration="18.9149431625" state="Gr"/>
      <phase duration="9.86658456829" state="yr"/>
      <phase duration="18.9149431625" state="rG"/>
      <phase duration="9.86658456829" state="ry"/>
   </tlLogic>
   <tlLogic id="1252285138" offset="0" programID="0" type="static">
      <phase duration="5.69995908506" state="G"/>
      <phase duration="3.63222152301" state="y"/>
   </tlLogic>
   <tlLogic id="1271504748" offset="0" programID="0" type="static">
      <phase duration="17.925352919" state="Gr"/>
      <phase duration="9.9782554747" state="yr"/>
      <phase duration="17.925352919" state="rG"/>
      <phase duration="9.9782554747" state="ry"/>
   </tlLogic>
   <tlLogic id="1271504750" offset="0" programID="0" type="static">
      <phase duration="3.68431392071" state="G"/>
      <phase duration="4.68653027924" state="y"/>
   </tlLogic>
   <tlLogic id="1271504755" offset="0" programID="0" type="static">
      <phase duration="16.7707656205" state="GGrrr"/>
      <phase duration="2.54782936506" state="yyrrr"/>
      <phase duration="16.7707656205" state="rrGrr"/>
      <phase duration="2.54782936506" state="rryrr"/>
      <phase duration="16.7707656205" state="rrrGG"/>
      <phase duration="2.54782936506" state="rrryy"/>
   </tlLogic>
   <tlLogic id="1271504756" offset="0" programID="0" type="static">
      <phase duration="28.8930537995" state="Gr"/>
      <phase duration="6.31262296802" state="yr"/>
      <phase duration="28.8930537995" state="rG"/>
      <phase duration="6.31262296802" state="ry"/>
   </tlLogic>
   <tlLogic id="1271504762" offset="0" programID="0" type="static">
      <phase duration="22.8109003167" state="G"/>
      <phase duration="9.93171978621" state="y"/>
   </tlLogic>
   <tlLogic id="1271504764" offset="0" programID="0" type="static">
      <phase duration="25.314890815" state="G"/>
      <phase duration="5.57792367519" state="y"/>
   </tlLogic>
   <tlLogic id="1271504768" offset="0" programID="0" type="static">
      <phase duration="28.7805111172" state="Gr"/>
      <phase duration="9.99514206223" state="yr"/>
      <phase duration="28.7805111172" state="rG"/>
      <phase duration="9.99514206223" state="ry"/>
   </tlLogic>
   <tlLogic id="1271504774" offset="0" programID="0" type="static">
      <phase duration="12.7583673762" state="G"/>
      <phase duration="8.1407006911" state="y"/>
   </tlLogic>
   <tlLogic id="1271504778" offset="0" programID="0" type="static">
      <phase duration="17.7610684515" state="G"/>
      <phase duration="2.40991555018" state="y"/>
   </tlLogic>
   <tlLogic id="1271504788" offset="0" programID="0" type="static">
      <phase duration="14.9246964699" state="GGrrr"/>
      <phase duration="7.29008661513" state="yyrrr"/>
      <phase duration="14.9246964699" state="rrGGG"/>
      <phase duration="7.29008661513" state="rryyy"/>
   </tlLogic>
   <tlLogic id="1271504795" offset="0" programID="0" type="static">
      <phase duration="35.7899462075" state="G"/>
      <phase duration="7.62605346182" state="y"/>
   </tlLogic>
   <tlLogic id="1271504804" offset="0" programID="0" type="static">
      <phase duration="23.805368063" state="Gr"/>
      <phase duration="7.4303576346" state="yr"/>
      <phase duration="23.805368063" state="rG"/>
      <phase duration="7.4303576346" state="ry"/>
   </tlLogic>
   <tlLogic id="1271504812" offset="0" programID="0" type="static">
      <phase duration="19.3596124219" state="G"/>
      <phase duration="8.21332903123" state="y"/>
   </tlLogic>
   <tlLogic id="1271504817" offset="0" programID="0" type="static">
      <phase duration="30.3919333197" state="G"/>
      <phase duration="4.54595398505" state="y"/>
   </tlLogic>
   <tlLogic id="1271504819" offset="0" programID="0" type="static">
      <phase duration="14.5587656111" state="Gr"/>
      <phase duration="9.67488357276" state="yr"/>
      <phase duration="14.5587656111" state="rG"/>
      <phase duration="9.67488357276" state="ry"/>
   </tlLogic>
   <tlLogic id="1271504822" offset="0" programID="0" type="static">
      <phase duration="21.2403743619" state="G"/>
      <phase duration="9.77291832522" state="y"/>
   </tlLogic>
   <tlLogic id="1271504824" offset="0" programID="0" type="static">
      <phase duration="7.83638439922" state="G"/>
      <phase duration="7.64049284504" state="y"/>
   </tlLogic>
   <tlLogic id="1271504829" offset="0" programID="0" type="static">
      <phase duration="15.911233221" state="Gr"/>
      <phase duration="5.14731444315" state="yr"/>
      <phase duration="15.911233221" state="rG"/>
      <phase duration="5.14731444315" state="ry"/>
   </tlLogic>
   <tlLogic id="1271504830" offset="0" programID="0" type="static">
      <phase duration="35.2315792488" state="GGrrr"/>
      <phase duration="6.76851722997" state="yyrrr"/>
      <phase duration="35.2315792488" state="rrGrr"/>
      <phase duration="6.76851722997" state="rryrr"/>
      <phase duration="35.2315792488" state="rrrGG"/>
      <phase duration="6.76851722997" state="rrryy"/>
   </tlLogic>
   <tlLogic id="1271504831" offset="0" programID="0" type="static">
      <phase duration="13.2923085755" state="G"/>
      <phase duration="1.08281627563" state="y"/>
   </tlLogic>
   <tlLogic id="1271504832" offset="0" programID="0" type="static">
      <phase duration="14.4271061689" state="Gr"/>
      <phase duration="6.6637769654" state="yr"/>
      <phase duration="14.4271061689" state="rG"/>
      <phase duration="6.6637769654" state="ry"/>
   </tlLogic>
   <tlLogic id="1271504834" offset="0" programID="0" type="static">
      <phase duration="27.8747761366" state="G"/>
      <phase duration="9.83565001502" state="y"/>
   </tlLogic>
   <tlLogic id="1271504842" offset="0" programID="0" type="static">
      <phase duration="36.4859312601" state="G"/>
      <phase duration="9.9188892346" state="y"/>
   </tlLogic>
   <tlLogic id="1271504844" offset="0" programID="0" type="static">
      <phase duration="23.5240533495" state="G"/>
      <phase duration="8.74262284448" state="y"/>
   </tlLogic>
   <tlLogic id="1271504845" offset="0" programID="0" type="static">
      <phase duration="21.7781518683" state="G"/>
      <phase duration="3.03087200349" state="y"/>
   </tlLogic>
   <tlLogic id="1271504852" offset="0" programID="0" type="static">
      <phase duration="11.7164920544" state="G"/>
      <phase duration="8.09735211112" state="y"/>
   </tlLogic>
   <tlLogic id="1271504861" offset="0" programID="0" type="static">
      <phase duration="6.1256175066" state="G"/>
      <phase duration="9.05482408321" state="y"/>
   </tlLogic>
   <tlLogic id="1271504870" offset="0" programID="0" type="static">
      <phase duration="36.6693084384" state="G"/>
      <phase duration="2.92548131959" state="y"/>
   </tlLogic>
   <tlLogic id="1271504871" offset="0" programID="0" type="static">
      <phase duration="22.2403802027" state="GGrr"/>
      <phase duration="8.91521009845" state="yyrr"/>
      <phase duration="22.2403802027" state="rrGG"/>
      <phase duration="8.91521009845" state="rryy"/>
   </tlLogic>
   <tlLogic id="1271504872" offset="0" programID="0" type="static">
      <phase duration="16.8555565834" state="G"/>
      <phase duration="4.32716360803" state="y"/>
   </tlLogic>
   <tlLogic id="1271504873" offset="0" programID="0" type="static">
      <phase duration="15.7406303709" state="GGrrr"/>
      <phase duration="6.76750197349" state="yyrrr"/>
      <phase duration="15.7406303709" state="rrGrr"/>
      <phase duration="6.76750197349" state="rryrr"/>
      <phase duration="15.7406303709" state="rrrGG"/>
      <phase duration="6.76750197349" state="rrryy"/>
   </tlLogic>
   <tlLogic id="1271504875" offset="0" programID="0" type="static">
      <phase duration="3.94343694306" state="G"/>
      <phase duration="8.47966384677" state="y"/>
   </tlLogic>
   <tlLogic id="1271504878" offset="0" programID="0" type="static">
      <phase duration="20.633137668" state="G"/>
      <phase duration="5.23260768334" state="y"/>
   </tlLogic>
   <tlLogic id="1271504881" offset="0" programID="0" type="static">
      <phase duration="21.9381467358" state="GGrrr"/>
      <phase duration="4.02152040457" state="yyrrr"/>
      <phase duration="21.9381467358" state="rrGrr"/>
      <phase duration="4.02152040457" state="rryrr"/>
      <phase duration="21.9381467358" state="rrrGG"/>
      <phase duration="4.02152040457" state="rrryy"/>
   </tlLogic>
   <tlLogic id="1271504887" offset="0" programID="0" type="static">
      <phase duration="23.1750096586" state="G"/>
      <phase duration="6.00770101993" state="y"/>
   </tlLogic>
   <tlLogic id="1271504889" offset="0" programID="0" type="static">
      <phase duration="21.1344617035" state="Gr"/>
      <phase duration="9.9751511188" state="yr"/>
      <phase duration="21.1344617035" state="rG"/>
      <phase duration="9.9751511188" state="ry"/>
   </tlLogic>
   <tlLogic id="1271504891" offset="0" programID="0" type="static">
      <phase duration="27.4440185642" state="G"/>
      <phase duration="8.75356788358" state="y"/>
   </tlLogic>
   <tlLogic id="1271504893" offset="0" programID="0" type="static">
      <phase duration="25.0533972711" state="GGrrr"/>
      <phase duration="7.13490781537" state="yyrrr"/>
      <phase duration="25.0533972711" state="rrGrr"/>
      <phase duration="7.13490781537" state="rryrr"/>
      <phase duration="25.0533972711" state="rrrGG"/>
      <phase duration="7.13490781537" state="rrryy"/>
   </tlLogic>
   <tlLogic id="1271504898" offset="0" programID="0" type="static">
      <phase duration="26.860661384" state="Gr"/>
      <phase duration="3.76770736025" state="yr"/>
      <phase duration="26.860661384" state="rG"/>
      <phase duration="3.76770736025" state="ry"/>
   </tlLogic>
   <tlLogic id="1271504899" offset="0" programID="0" type="static">
      <phase duration="16.6947798478" state="G"/>
      <phase duration="5.67786564457" state="y"/>
   </tlLogic>
   <tlLogic id="1271504901" offset="0" programID="0" type="static">
      <phase duration="30.9623477364" state="GGrrr"/>
      <phase duration="1.0655325282" state="yyrrr"/>
      <phase duration="30.9623477364" state="rrGrr"/>
      <phase duration="1.0655325282" state="rryrr"/>
      <phase duration="30.9623477364" state="rrrGG"/>
      <phase duration="1.0655325282" state="rrryy"/>
   </tlLogic>
   <tlLogic id="1271504904" offset="0" programID="0" type="static">
      <phase duration="26.0502765889" state="Grr"/>
      <phase duration="9.94617499918" state="yrr"/>
      <phase duration="26.0502765889" state="rGG"/>
      <phase duration="9.94617499918" state="ryy"/>
   </tlLogic>
   <tlLogic id="1271504905" offset="0" programID="0" type="static">
      <phase duration="29.3082171372" state="G"/>
      <phase duration="7.53176031737" state="y"/>
   </tlLogic>
   <tlLogic id="1271504907" offset="0" programID="0" type="static">
      <phase duration="39.8143477739" state="G"/>
      <phase duration="8.8012653865" state="y"/>
   </tlLogic>
   <tlLogic id="1271504908" offset="0" programID="0" type="static">
      <phase duration="22.1982853553" state="G"/>
      <phase duration="3.79341679116" state="y"/>
   </tlLogic>
   <tlLogic id="1271504911" offset="0" programID="0" type="static">
      <phase duration="8.00418120519" state="G"/>
      <phase duration="8.30197963452" state="y"/>
   </tlLogic>
   <tlLogic id="1271504913" offset="0" programID="0" type="static">
      <phase duration="20.4114380346" state="GGrrr"/>
      <phase duration="7.3102433658" state="yyrrr"/>
      <phase duration="20.4114380346" state="rrGGr"/>
      <phase duration="7.3102433658" state="rryyr"/>
      <phase duration="20.4114380346" state="rrrrG"/>
      <phase duration="7.3102433658" state="rrrry"/>
   </tlLogic>
   <tlLogic id="1271504914" offset="0" programID="0" type="static">
      <phase duration="15.7116756517" state="G"/>
      <phase duration="8.63856054633" state="y"/>
   </tlLogic>
   <tlLogic id="1299369678" offset="0" programID="0" type="static">
      <phase duration="17.9678342925" state="G"/>
      <phase duration="7.65499626205" state="y"/>
   </tlLogic>
   <tlLogic id="1299369684" offset="0" programID="0" type="static">
      <phase duration="25.6538513947" state="G"/>
      <phase duration="7.61786588633" state="y"/>
   </tlLogic>
   <tlLogic id="1299369686" offset="0" programID="0" type="static">
      <phase duration="32.5078694312" state="G"/>
      <phase duration="6.89086881713" state="y"/>
   </tlLogic>
   <tlLogic id="1299369689" offset="0" programID="0" type="static">
      <phase duration="14.729024878" state="GGrrr"/>
      <phase duration="2.57031246112" state="yyrrr"/>
      <phase duration="14.729024878" state="rrGrr"/>
      <phase duration="2.57031246112" state="rryrr"/>
      <phase duration="14.729024878" state="rrrGG"/>
      <phase duration="2.57031246112" state="rrryy"/>
   </tlLogic>
   <tlLogic id="1299369691" offset="0" programID="0" type="static">
      <phase duration="24.7219102609" state="Gr"/>
      <phase duration="5.65147708926" state="yr"/>
      <phase duration="24.7219102609" state="rG"/>
      <phase duration="5.65147708926" state="ry"/>
   </tlLogic>
   <tlLogic id="1299369701" offset="0" programID="0" type="static">
      <phase duration="19.9631290979" state="GGrrr"/>
      <phase duration="9.2748656888" state="yyrrr"/>
      <phase duration="19.9631290979" state="rrGrr"/>
      <phase duration="9.2748656888" state="rryrr"/>
      <phase duration="19.9631290979" state="rrrGG"/>
      <phase duration="9.2748656888" state="rrryy"/>
   </tlLogic>
   <tlLogic id="1312440651" offset="0" programID="0" type="static">
      <phase duration="20.4256678541" state="G"/>
      <phase duration="3.17346107531" state="y"/>
   </tlLogic>
   <tlLogic id="1312440715" offset="0" programID="0" type="static">
      <phase duration="20.744488774" state="Gr"/>
      <phase duration="1.77619946887" state="yr"/>
      <phase duration="20.744488774" state="rG"/>
      <phase duration="1.77619946887" state="ry"/>
   </tlLogic>
   <tlLogic id="1353566368" offset="0" programID="0" type="static">
      <phase duration="22.7937636992" state="G"/>
      <phase duration="9.06656359397" state="y"/>
   </tlLogic>
   <tlLogic id="1353566371" offset="0" programID="0" type="static">
      <phase duration="21.2767433349" state="G"/>
      <phase duration="3.0596748939" state="y"/>
   </tlLogic>
   <tlLogic id="1360932319" offset="0" programID="0" type="static"/>
   <tlLogic id="1366801174" offset="0" programID="0" type="static">
      <phase duration="12.3338040296" state="G"/>
      <phase duration="7.43566006243" state="y"/>
   </tlLogic>
   <tlLogic id="1366801185" offset="0" programID="0" type="static">
      <phase duration="20.1886266788" state="G"/>
      <phase duration="3.94544291742" state="y"/>
   </tlLogic>
   <tlLogic id="1366801190" offset="0" programID="0" type="static"/>
   <tlLogic id="1366801194" offset="0" programID="0" type="static"/>
   <tlLogic id="1366801217" offset="0" programID="0" type="static">
      <phase duration="22.3425679775" state="G"/>
      <phase duration="8.84533075473" state="y"/>
   </tlLogic>
   <tlLogic id="1366801221" offset="0" programID="0" type="static">
      <phase duration="24.5995859471" state="Gr"/>
      <phase duration="8.99146792679" state="yr"/>
      <phase duration="24.5995859471" state="rG"/>
      <phase duration="8.99146792679" state="ry"/>
   </tlLogic>
   <tlLogic id="1366801267" offset="0" programID="0" type="static">
      <phase duration="28.2313110133" state="Grr"/>
      <phase duration="7.90527040084" state="yrr"/>
      <phase duration="28.2313110133" state="rGr"/>
      <phase duration="7.90527040084" state="ryr"/>
      <phase duration="28.2313110133" state="rrG"/>
      <phase duration="7.90527040084" state="rry"/>
   </tlLogic>
   <tlLogic id="1492679675" offset="0" programID="0" type="static">
      <phase duration="21.963264232" state="Gr"/>
      <phase duration="9.0868403035" state="yr"/>
      <phase duration="21.963264232" state="rG"/>
      <phase duration="9.0868403035" state="ry"/>
   </tlLogic>
   <tlLogic id="1492679678" offset="0" programID="0" type="static">
      <phase duration="7.83924244625" state="Gr"/>
      <phase duration="5.0507467518" state="yr"/>
      <phase duration="7.83924244625" state="rG"/>
      <phase duration="5.0507467518" state="ry"/>
   </tlLogic>
   <tlLogic id="1492679681" offset="0" programID="0" type="static">
      <phase duration="33.8711204132" state="G"/>
      <phase duration="8.21605450427" state="y"/>
   </tlLogic>
   <tlLogic id="1492679687" offset="0" programID="0" type="static">
      <phase duration="25.4456460372" state="Gr"/>
      <phase duration="8.56523084168" state="yr"/>
      <phase duration="25.4456460372" state="rG"/>
      <phase duration="8.56523084168" state="ry"/>
   </tlLogic>
   <tlLogic id="1492679714" offset="0" programID="0" type="static">
      <phase duration="33.5116590704" state="Gr"/>
      <phase duration="3.77165763986" state="yr"/>
      <phase duration="33.5116590704" state="rG"/>
      <phase duration="3.77165763986" state="ry"/>
   </tlLogic>
   <tlLogic id="1492679718" offset="0" programID="0" type="static"/>
   <tlLogic id="1492679738" offset="0" programID="0" type="static">
      <phase duration="38.773547254" state="G"/>
      <phase duration="9.57466746442" state="y"/>
   </tlLogic>
   <tlLogic id="1492679740" offset="0" programID="0" type="static">
      <phase duration="19.5629609549" state="G"/>
      <phase duration="7.04142947143" state="y"/>
   </tlLogic>