<?xml version="1.0" ?>
<tlLogics>
   <tlLogic id="1000099468" offset="0" programID="0" type="static">
      <phase duration="24.9828563615" state="G"/>
      <phase duration="6.27921287859" state="y"/>
   </tlLogic>
   <tlLogic id="1000099475" offset="0" programID="0" type="static">
      <phase duration="26.0300771373" state="GG"/>
      <phase duration="6.27088531969" state="yy"/>
   </tlLogic>
   <tlLogic id="1000099551" offset="0" programID="0" type="static">
      <phase duration="1.62478949256" state="G"/>
      <phase duration="2.53891327396" state="y"/>
   </tlLogic>
   <tlLogic id="1000099553" offset="0" programID="0" type="static">
      <phase duration="12.1092239913" state="Gr"/>
      <phase duration="6.5150384157" state="yr"/>
      <phase duration="12.1092239913" state="rG"/>
      <phase duration="6.5150384157" state="ry"/>
   </tlLogic>
   <tlLogic id="1012321567" offset="0" programID="0" type="static">
      <phase duration="10.6725537762" state="Gr"/>
      <phase duration="1.91516815239" state="yr"/>
      <phase duration="10.6725537762" state="rG"/>
      <phase duration="1.91516815239" state="ry"/>
   </tlLogic>
   <tlLogic id="1012321580" offset="0" programID="0" type="static">
      <phase duration="8.31278223897" state="Gr"/>
      <phase duration="4.44327155361" state="yr"/>
      <phase duration="8.31278223897" state="rG"/>
      <phase duration="4.44327155361" state="ry"/>
   </tlLogic>
   <tlLogic id="1012326820" offset="0" programID="0" type="static">
      <phase duration="6.67390816894" state="G"/>
      <phase duration="6.14289235609" state="y"/>
   </tlLogic>
   <tlLogic id="1028832536" offset="0" programID="0" type="static"/>
   <tlLogic id="1037290808" offset="0" programID="0" type="static">
      <phase duration="13.7473032761" state="GGGrrrrrr"/>
      <phase duration="4.34347125908" state="yyyrrrrrr"/>
      <phase duration="13.7473032761" state="rrrGGGrrr"/>
      <phase duration="4.34347125908" state="rrryyyrrr"/>
      <phase duration="13.7473032761" state="rrrrrrGGG"/>
      <phase duration="4.34347125908" state="rrrrrryyy"/>
   </tlLogic>
   <tlLogic id="1037290863" offset="0" programID="0" type="static">
      <phase duration="13.3423794799" state="GGrr"/>
      <phase duration="9.88559313612" state="yyrr"/>
      <phase duration="13.3423794799" state="rrGG"/>
      <phase duration="9.88559313612" state="rryy"/>
   </tlLogic>
   <tlLogic id="1037290915" offset="0" programID="0" type="static">
      <phase duration="17.6077017438" state="GGrrr"/>
      <phase duration="7.75312965483" state="yyrrr"/>
      <phase duration="17.6077017438" state="rrGGG"/>
      <phase duration="7.75312965483" state="rryyy"/>
   </tlLogic>
   <tlLogic id="1037290944" offset="0" programID="0" type="static">
      <phase duration="33.9154121484" state="G"/>
      <phase duration="5.67134750355" state="y"/>
   </tlLogic>
   <tlLogic id="1040964328" offset="0" programID="0" type="static">
      <phase duration="20.0338806288" state="Gr"/>
      <phase duration="8.62268351147" state="yr"/>
      <phase duration="20.0338806288" state="rG"/>
      <phase duration="8.62268351147" state="ry"/>
   </tlLogic>
   <tlLogic id="1040964333" offset="0" programID="0" type="static">
      <phase duration="33.1042055201" state="Gr"/>
      <phase duration="6.43473002379" state="yr"/>
      <phase duration="33.1042055201" state="rG"/>
      <phase duration="6.43473002379" state="ry"/>
   </tlLogic>
   <tlLogic id="1045044692" offset="0" programID="0" type="static">
      <phase duration="33.4366155482" state="Gr"/>
      <phase duration="4.06549621674" state="yr"/>
      <phase duration="33.4366155482" state="rG"/>
      <phase duration="4.06549621674" state="ry"/>
   </tlLogic>
   <tlLogic id="1045044715" offset="0" programID="0" type="static">
      <phase duration="10.7011130282" state="Gr"/>
      <phase duration="2.75908333497" state="yr"/>
      <phase duration="10.7011130282" state="rG"/>
      <phase duration="2.75908333497" state="ry"/>
   </tlLogic>
   <tlLogic id="1045044750" offset="0" programID="0" type="static">
      <phase duration="36.4638663613" state="Gr"/>
      <phase duration="2.70897519086" state="yr"/>
      <phase duration="36.4638663613" state="rG"/>
      <phase duration="2.70897519086" state="ry"/>
   </tlLogic>
   <tlLogic id="1045044796" offset="0" programID="0" type="static">
      <phase duration="8.33633817101" state="Gr"/>
      <phase duration="2.57316147655" state="yr"/>
      <phase duration="8.33633817101" state="rG"/>
      <phase duration="2.57316147655" state="ry"/>
   </tlLogic>
   <tlLogic id="1045044863" offset="0" programID="0" type="static">
      <phase duration="8.75641150346" state="G"/>
      <phase duration="9.96364003841" state="y"/>
   </tlLogic>
   <tlLogic id="1062771990" offset="0" programID="0" type="static">
      <phase duration="19.721190987" state="G"/>
      <phase duration="7.16905333014" state="y"/>
   </tlLogic>
   <tlLogic id="1123630986" offset="0" programID="0" type="static">
      <phase duration="33.5047672999" state="G"/>
      <phase duration="8.91597150617" state="y"/>
   </tlLogic>
   <tlLogic id="1150667546" offset="0" programID="0" type="static">
      <phase duration="10.2184094233" state="G"/>
      <phase duration="4.14707818919" state="y"/>
   </tlLogic>
   <tlLogic id="1150667555" offset="0" programID="0" type="static">
      <phase duration="5.63641200691" state="Gr"/>
      <phase duration="3.90986517943" state="yr"/>
      <phase duration="5.63641200691" state="rG"/>
      <phase duration="3.90986517943" state="ry"/>
   </tlLogic>
   <tlLogic id="1150667558" offset="0" programID="0" type="static">
      <phase duration="15.1380071719" state="Gr"/>
      <phase duration="7.03630355507" state="yr"/>
      <phase duration="15.1380071719" state="rG"/>
      <phase duration="7.03630355507" state="ry"/>
   </tlLogic>
   <tlLogic id="1150667586" offset="0" programID="0" type="static">
      <phase duration="21.8910738192" state="G"/>
      <phase duration="5.60287727069" state="y"/>
   </tlLogic>
   <tlLogic id="1150667604" offset="0" programID="0" type="static">
      <phase duration="15.17643805" state="Gr"/>
      <phase duration="6.42151679926" state="yr"/>
      <phase duration="15.17643805" state="rG"/>
      <phase duration="6.42151679926" state="ry"/>
   </tlLogic>
   <tlLogic id="1150667608" offset="0" programID="0" type="static">
      <phase duration="33.2661554381" state="Gr"/>
      <phase duration="8.50415082014" state="yr"/>
      <phase duration="33.2661554381" state="rG"/>
      <phase duration="8.50415082014" state="ry"/>
   </tlLogic>
   <tlLogic id="1150667618" offset="0" programID="0" type="static">
      <phase duration="19.0486363326" state="G"/>
      <phase duration="8.60554095686" state="y"/>
   </tlLogic>
   <tlLogic id="1156723834" offset="0" programID="0" type="static">
      <phase duration="30.8956589255" state="G"/>
      <phase duration="3.06660262372" state="y"/>
   </tlLogic>
   <tlLogic id="1156723839" offset="0" programID="0" type="static">
      <phase duration="11.5986555081" state="Gr"/>
      <phase duration="3.7235341525" state="yr"/>
      <phase duration="11.5986555081" state="rG"/>
      <phase duration="3.7235341525" state="ry"/>
   </tlLogic>
   <tlLogic id="1220020545" offset="0" programID="0" type="static">
      <phase duration="11.7265512159" state="GGrrr"/>
      <phase duration="8.75054021445" state="yyrrr"/>
      <phase duration="11.7265512159" state="rrGrr"/>
      <phase duration="8.75054021445" state="rryrr"/>
      <phase duration="11.7265512159" state="rrrGG"/>
      <phase duration="8.75054021445" state="rrryy"/>
   </tlLogic>
   <tlLogic id="1220020592" offset="0" programID="0" type="static">
      <phase duration="37.4225957867" state="Gr"/>
      <phase duration="6.83580225853" state="yr"/>
      <phase duration="37.4225957867" state="rG"/>
      <phase duration="6.83580225853" state="ry"/>
   </tlLogic>
   <tlLogic id="1220020607" offset="0" programID="0" type="static">
      <phase duration="39.1150708203" state="GGrr"/>
      <phase duration="6.11434959739" state="yyrr"/>
      <phase duration="39.1150708203" state="rrGG"/>
      <phase duration="6.11434959739" state="rryy"/>
   </tlLogic>
   <tlLogic id="1220020630" offset="0" programID="0" type="static">
      <phase duration="24.1263399215" state="Gr"/>
      <phase duration="4.42354549266" state="yr"/>
      <phase duration="24.1263399215" state="rG"/>
      <phase duration="4.42354549266" state="ry"/>
   </tlLogic>
   <tlLogic id="1220020656" offset="0" programID="0" type="static">
      <phase duration="5.18608978925" state="GGrr"/>
      <phase duration="9.84218809155" state="yyrr"/>
      <phase duration="5.18608978925" state="rrGG"/>
      <phase duration="9.84218809155" state="rryy"/>
   </tlLogic>
   <tlLogic id="1220020673" offset="0" programID="0" type="static">
      <phase duration="12.0713792979" state="GGGrrrrrr"/>
      <phase duration="8.64480355395" state="yyyrrrrrr"/>
      <phase duration="12.0713792979" state="rrrGGGrrr"/>
      <phase duration="8.64480355395" state="rrryyyrrr"/>
      <phase duration="12.0713792979" state="rrrrrrGGG"/>
      <phase duration="8.64480355395" state="rrrrrryyy"/>
   </tlLogic>
   <tlLogic id="1220020679" offset="0" programID="0" type="static">
      <phase duration="15.3275399005" state="GGrr"/>
      <phase duration="7.87747600164" state="yyrr"/>
      <phase duration="15.3275399005" state="rrGG"/>
      <phase duration="7.87747600164" state="rryy"/>
   </tlLogic>
   <tlLogic id="1229522502" offset="0" programID="0" type="static">
      <phase duration="25.5464493403" state="Gr"/>
      <phase duration="7.677047858" state="yr"/>
      <phase duration="25.5464493403" state="rG"/>
      <phase duration="7.677047858" state="ry"/>
   </tlLogic>
   <tlLogic id="1229522509" offset="0" programID="0" type="static">
      <phase duration="33.8244209696" state="G"/>
      <phase duration="1.98218219613" state="y"/>
   </tlLogic>
   <tlLogic id="1229522552" offset="0" programID="0" type="static">
      <phase duration="7.12199533874" state="G"/>
      <phase duration="1.54124024952" state="y"/>
   </tlLogic>
   <tlLogic id="1229522554" offset="0" programID="0" type="static">
      <phase duration="28.9854319462" state="G"/>
      <phase duration="3.1312126918" state="y"/>
   </tlLogic>
   <tlLogic id="1252265070" offset="0" programID="0" type="static"/>
   <tlLogic id="1252285079" offset="0" programID="0" type="static">
      <phase duration="18.750586836" state="Gr"/>
      <phase duration="7.14919496011" state="yr"/>
      <phase duration="18.750586836" state="rG"/>
      <phase duration="7.14919496011" state="ry"/>
   </tlLogic>
   <tlLogic id="1252285082" offset="0" programID="0" type="static">
      <phase duration="35.8764061168" state="G"/>
      <phase duration="1.64563312768" state="y"/>
   </tlLogic>
   <tlLogic id="1252285085" offset="0" programID="0" type="static">
      <phase duration="35.131044246" state="Gr"/>
      <phase duration="8.38316946888" state="yr"/>
      <phase duration="35.131044246" state="rG"/>
      <phase duration="8.38316946888" state="ry"/>
   </tlLogic>
   <tlLogic id="1252285087" offset="0" programID="0" type="static"/>
   <tlLogic id="1252285093" offset="0" programID="0" type="static">
      <phase duration="22.7013345673" state="Gr"/>
      <phase duration="1.16512579569" state="yr"/>
      <phase duration="22.7013345673" state="rG"/>
      <phase duration="1.16512579569" state="ry"/>
   </tlLogic>
   <tlLogic id="1252285105" offset="0" programID="0" type="static">
      <phase duration="17.5341348814" state="G"/>
      <phase duration="6.9169213825" state="y"/>
   </tlLogic>
   <tlLogic id="1264255381" offset="0" programID="0" type="static">
      <phase duration="20.2220934019" state="GGGrrrrrr"/>
      <phase duration="6.27099136321" state="yyyrrrrrr"/>
      <phase duration="20.2220934019" state="rrrGGGrrr"/>
      <phase duration="6.27099136321" state="rrryyyrrr"/>
      <phase duration="20.2220934019" state="rrrrrrGGG"/>
      <phase duration="6.27099136321" state="rrrrrryyy"/>
   </tlLogic>
   <tlLogic id="1271504738" offset="0" programID="0" type="static">
      <phase duration="38.3351193821" state="Gr"/>
      <phase duration="6.14601565635" state="yr"/>
      <phase duration="38.3351193821" state="rG"/>
      <phase duration="6.14601565635" state="ry"/>
   </tlLogic>
   <tlLogic id="1271504743" offset="0" programID="0" type="static">
      <phase duration="18.6580083188" state="G"/>
      <phase duration="1.40828110864" state="y"/>
   </tlLogic>
   <tlLogic id="1271504747" offset="0" programID="0" type="static">
      <phase duration="30.6997944203" state="Gr"/>
      <phase duration="5.62482582467" state="yr"/>
      <phase duration="30.6997944203" state="rG"/>
      <phase duration="5.62482582467" state="ry"/>
   </tlLogic>
   <tlLogic id="1271504748" offset="0" programID="0" type="static">
      <phase duration="18.7292846436" state="Gr"/>
      <phase duration="4.82997104095" state="yr"/>
      <phase duration="18.7292846436" state="rG"/>
      <phase duration="4.82997104095" state="ry"/>
   </tlLogic>
   <tlLogic id="1271504756" offset="0" programID="0" type="static">
      <phase duration="10.2142522659" state="Gr"/>
      <phase duration="3.55098852608" state="yr"/>
      <phase duration="10.2142522659" state="rG"/>
      <phase duration="3.55098852608" state="ry"/>
   </tlLogic>
   <tlLogic id="1271504757" offset="0" programID="0" type="static">
      <phase duration="31.1053802197" state="GGrrr"/>
      <phase duration="2.60200434415" state="yyrrr"/>
      <phase duration="31.1053802197" state="rrGrr"/>
      <phase duration="2.60200434415" state="rryrr"/>
      <phase duration="31.1053802197" state="rrrGG"/>
      <phase duration="2.60200434415" state="rrryy"/>
   </tlLogic>
   <tlLogic id="1271504762" offset="0" programID="0" type="static">
      <phase duration="32.437475946" state="G"/>
      <phase duration="7.4686874245" state="y"/>
   </tlLogic>
   <tlLogic id="1271504768" offset="0" programID="0" type="static">
      <phase duration="5.08211718277" state="Gr"/>
      <phase duration="2.84853335581" state="yr"/>
      <phase duration="5.08211718277" state="rG"/>
      <phase duration="2.84853335581" state="ry"/>
   </tlLogic>
   <tlLogic id="1271504773" offset="0" programID="0" type="static">
      <phase duration="35.0647676064" state="GGrrr"/>
      <phase duration="8.89809620283" state="yyrrr"/>
      <phase duration="35.0647676064" state="rrGrr"/>
      <phase duration="8.89809620283" state="rryrr"/>
      <phase duration="35.0647676064" state="rrrGG"/>
      <phase duration="8.89809620283" state="rrryy"/>
   </tlLogic>
   <tlLogic id="1271504774" offset="0" programID="0" type="static">
      <phase duration="31.672182191" state="G"/>
      <phase duration="3.10359111541" state="y"/>
   </tlLogic>
   <tlLogic id="1271504775" offset="0" programID="0" type="static">
      <phase duration="19.7812886704" state="Gr"/>
      <phase duration="7.33067897339" state="yr"/>
      <phase duration="19.7812886704" state="rG"/>
      <phase duration="7.33067897339" state="ry"/>
   </tlLogic>
   <tlLogic id="1271504778" offset="0" programID="0" type="static">
      <phase duration="32.0242167237" state="G"/>
      <phase duration="9.90698016762" state="y"/>
   </tlLogic>
   <tlLogic id="1271504781" offset="0" programID="0" type="static">
      <phase duration="16.9115404915" state="GGrrr"/>
      <phase duration="1.27915042389" state="yyrrr"/>
      <phase duration="16.9115404915" state="rrGrr"/>
      <phase duration="1.27915042389" state="rryrr"/>
      <phase duration="16.9115404915" state="rrrGG"/>
      <phase duration="1.27915042389" state="rrryy"/>
   </tlLogic>
   <tlLogic id="1271504797" offset="0" programID="0" type="static">
      <phase duration="32.4767511964" state="Gr"/>
      <phase duration="2.84773755713" state="yr"/>
      <phase duration="32.4767511964" state="rG"/>
      <phase duration="2.84773755713" state="ry"/>
   </tlLogic>
   <tlLogic id="1271504812" offset="0" programID="0" type="static">
      <phase duration="30.7461864394" state="G"/>
      <phase duration="3.81117919681" state="y"/>
   </tlLogic>
   <tlLogic id="1271504814" offset="0" programID="0" type="static">
      <phase duration="21.7605818443" state="G"/>
      <phase duration="4.8783250164" state="y"/>
   </tlLogic>
   <tlLogic id="1271504817" offset="0" programID="0" type="static">
      <phase duration="19.4352770689" state="G"/>
      <phase duration="9.63005271151" state="y"/>
   </tlLogic>
   <tlLogic id="1271504819" offset="0" programID="0" type="static">
      <phase duration="21.583587343" state="Gr"/>
      <phase duration="9.74426472364" state="yr"/>
      <phase duration="21.583587343" state="rG"/>
      <phase duration="9.74426472364" state="ry"/>
   </tlLogic>
   <tlLogic id="1271504827" offset="0" programID="0" type="static">
      <phase duration="21.4471832981" state="Gr"/>
      <phase duration="2.64229092928" state="yr"/>
      <phase duration="21.4471832981" state="rG"/>
      <phase duration="2.64229092928" state="ry"/>
   </tlLogic>
   <tlLogic id="1271504828" offset="0" programID="0" type="static">
      <phase duration="6.94456341846" state="GGrrr"/>
      <phase duration="7.45234732849" state="yyrrr"/>
      <phase duration="6.94456341846" state="rrGrr"/>
      <phase duration="7.45234732849" state="rryrr"/>
      <phase duration="6.94456341846" state="rrrGG"/>
      <phase duration="7.45234732849" state="rrryy"/>
   </tlLogic>
   <tlLogic id="1271504830" offset="0" programID="0" type="static">
      <phase duration="37.119442518" state="GGrrr"/>
      <phase duration="7.33682924413" state="yyrrr"/>
      <phase duration="37.119442518" state="rrGrr"/>
      <phase duration="7.33682924413" state="rryrr"/>
      <phase duration="37.119442518" state="rrrGG"/>
      <phase duration="7.33682924413" state="rrryy"/>
   </tlLogic>
   <tlLogic id="1271504831" offset="0" programID="0" type="static">
      <phase duration="14.6423111921" state="G"/>
      <phase duration="2.43680256175" state="y"/>
   </tlLogic>
   <tlLogic id="1271504836" offset="0" programID="0" type="static">
      <phase duration="26.6085362689" state="G"/>
      <phase duration="6.84821216145" state="y"/>
   </tlLogic>
   <tlLogic id="1271504838" offset="0" programID="0" type="static">
      <phase duration="2.42288695178" state="GGrrr"/>
      <phase duration="9.69195627876" state="yyrrr"/>
      <phase duration="2.42288695178" state="rrGGr"/>
      <phase duration="9.69195627876" state="rryyr"/>
      <phase duration="2.42288695178" state="rrrrG"/>
      <phase duration="9.69195627876" state="rrrry"/>
   </tlLogic>
   <tlLogic id="1271504841" offset="0" programID="0" type="static">
      <phase duration="1.95883766455" state="G"/>
      <phase duration="8.91505709502" state="y"/>
   </tlLogic>
   <tlLogic id="1271504843" offset="0" programID="0" type="static">
      <phase duration="9.71578530372" state="Gr"/>
      <phase duration="6.20936339416" state="yr"/>
      <phase duration="9.71578530372" state="rG"/>
      <phase duration="6.20936339416" state="ry"/>
   </tlLogic>
   <tlLogic id="1271504845" offset="0" programID="0" type="static">
      <phase duration="37.6283077209" state="G"/>
      <phase duration="8.61611086057" state="y"/>
   </tlLogic>
   <tlLogic id="1271504849" offset="0" programID="0" type="static">
      <phase duration="29.1738888512" state="GGrrr"/>
      <phase duration="2.32391371319" state="yyrrr"/>
      <phase duration="29.1738888512" state="rrGrr"/>
      <phase duration="2.32391371319" state="rryrr"/>
      <phase duration="29.1738888512" state="rrrGG"/>
      <phase duration="2.32391371319" state="rrryy"/>
   </tlLogic>
   <tlLogic id="1271504850" offset="0" programID="0" type="static">
      <phase duration="27.9239359413" state="Gr"/>
      <phase duration="7.22660677834" state="yr"/>
      <phase duration="27.9239359413" state="rG"/>
      <phase duration="7.22660677834" state="ry"/>
   </tlLogic>
   <tlLogic id="1271504851" offset="0" programID="0" type="static">
      <phase duration="26.423993363" state="G"/>
      <phase duration="3.06293788897" state="y"/>
   </tlLogic>
   <tlLogic id="1271504852" offset="0" programID="0" type="static">
      <phase duration="31.1237104727" state="G"/>
      <phase duration="6.62239215817" state="y"/>
   </tlLogic>
   <tlLogic id="1271504864" offset="0" programID="0" type="static">
      <phase duration="32.2582873549" state="G"/>
      <phase duration="9.98779166166" state="y"/>
   </tlLogic>
   <tlLogic id="1271504866" offset="0" programID="0" type="static">
      <phase duration="27.9723800672" state="G"/>
      <phase duration="5.79656634437" state="y"/>
   </tlLogic>
   <tlLogic id="1271504867" offset="0" programID="0" type="static">
      <phase duration="4.31747823711" state="G"/>
      <phase duration="3.89329019944" state="y"/>
   </tlLogic>
   <tlLogic id="1271504870" offset="0" programID="0" type="static">
      <phase duration="27.4969426726" state="G"/>
      <phase duration="1.75171430819" state="y"/>
   </tlLogic>
   <tlLogic id="1271504871" offset="0" programID="0" type="static">
      <phase duration="13.9653405293" state="GGrr"/>
      <phase duration="5.62139664267" state="yyrr"/>
      <phase duration="13.9653405293" state="rrGG"/>
      <phase duration="5.62139664267" state="rryy"/>
   </tlLogic>
   <tlLogic id="1271504872" offset="0" programID="0" type="static">
      <phase duration="24.1305818769" state="G"/>
      <phase duration="6.24850275532" state="y"/>
   </tlLogic>
   <tlLogic id="1271504874" offset="0" programID="0" type="static">
      <phase duration="2.47739717141" state="G"/>
      <phase duration="9.39805351459" state="y"/>
   </tlLogic>
   <tlLogic id="1271504888" offset="0" programID="0" type="static">
      <phase duration="17.528323223" state="G"/>
      <phase duration="7.94665522343" state="y"/>
   </tlLogic>
   <tlLogic id="1271504891" offset="0" programID="0" type="static">
      <phase duration="13.7005546015" state="G"/>
      <phase duration="2.05032466978" state="y"/>
   </tlLogic>
   <tlLogic id="1271504895" offset="0" programID="0" type="static">
      <phase duration="4.58060704547" state="GGrrr"/>
      <phase duration="2.69200371031" state="yyrrr"/>
      <phase duration="4.58060704547" state="rrGrr"/>
      <phase duration="2.69200371031" state="rryrr"/>
      <phase duration="4.58060704547" state="rrrGG"/>
      <phase duration="2.69200371031" state="rrryy"/>
   </tlLogic>
   <tlLogic id="1271504904" offset="0" programID="0" type="static">
      <phase duration="18.06389159" state="Grr"/>
      <phase duration="2.40839020176" state="yrr"/>
      <phase duration="18.06389159" state="rGG"/>
      <phase duration="2.40839020176" state="ryy"/>
   </tlLogic>
   <tlLogic id="1271504910" offset="0" programID="0" type="static">
      <phase duration="2.74500318139" state="Gr"/>
      <phase duration="6.17738722723" state="yr"/>
      <phase duration="2.74500318139" state="rG"/>
      <phase duration="6.17738722723" state="ry"/>
   </tlLogic>
   <tlLogic id="1271504913" offset="0" programID="0" type="static">
      <phase duration="30.5122529066" state="GGrrr"/>
      <phase duration="1.85479719323" state="yyrrr"/>
      <phase duration="30.5122529066" state="rrGGr"/>
      <phase duration="1.85479719323" state="rryyr"/>
      <phase duration="30.5122529066" state="rrrrG"/>
      <phase duration="1.85479719323" state="rrrry"/>
   </tlLogic>
   <tlLogic id="1271504914" offset="0" programID="0" type="static">
      <phase duration="31.4982014378" state="G"/>
      <phase duration="2.45828930286" state="y"/>
   </tlLogic>
   <tlLogic id="1271504918" offset="0" programID="0" type="static">
      <phase duration="15.2624610586" state="G"/>
      <phase duration="8.75524373403" state="y"/>
   </tlLogic>
   <tlLogic id="1298727142" offset="0" programID="0" type="static">
      <phase duration="9.59804402043" state="Gr"/>
      <phase duration="1.44597529047" state="yr"/>
      <phase duration="9.59804402043" state="rG"/>
      <phase duration="1.44597529047" state="ry"/>
   </tlLogic>
   <tlLogic id="1299369678" offset="0" programID="0" type="static">
      <phase duration="18.2486912503" state="G"/>
      <phase duration="6.04225754623" state="y"/>
   </tlLogic>
   <tlLogic id="1299369684" offset="0" programID="0" type="static">
      <phase duration="27.8953922659" state="G"/>
      <phase duration="2.35597716177" state="y"/>
   </tlLogic>
   <tlLogic id="1299369689" offset="0" programID="0" type="static">
      <phase duration="14.0194575552" state="GGrrr"/>
      <phase duration="7.21617988124" state="yyrrr"/>
      <phase duration="14.0194575552" state="rrGrr"/>
      <phase duration="7.21617988124" state="rryrr"/>
      <phase duration="14.0194575552" state="rrrGG"/>
      <phase duration="7.21617988124" state="rrryy"/>
   </tlLogic>
   <tlLogic id="1299369697" offset="0" programID="0" type="static">
      <phase duration="38.9142360319" state="G"/>
      <phase duration="8.25803970004" state="y"/>
   </tlLogic>
   <tlLogic id="1299369699" offset="0" programID="0" type="static">
      <phase duration="30.8157031634" state="G"/>
      <phase duration="9.25814700729" state="y"/>
   </tlLogic>
   <tlLogic id="1312440659" offset="0" programID="0" type="static">
      <phase duration="29.7174920459" state="GGrrr"/>
      <phase duration="2.89566260045" state="yyrrr"/>
      <phase duration="29.7174920459" state="rrGrr"/>
      <phase duration="2.89566260045" state="rryrr"/>
      <phase duration="29.7174920459" state="rrrGG"/>
      <phase duration="2.89566260045" state="rrryy"/>
   </tlLogic>
   <tlLogic id="1312440715" offset="0" programID="0" type="static">
      <phase duration="38.811988865" state="Gr"/>
      <phase duration="6.44049583661" state="yr"/>
      <phase duration="38.811988865" state="rG"/>
      <phase duration="6.44049583661" state="ry"/>
   </tlLogic>
   <tlLogic id="1312812204" offset="0" programID="0" type="static">
      <phase duration="7.19873526625" state="G"/>
      <phase duration="3.86395123391" state="y"/>
   </tlLogic>
   <tlLogic id="1353566368" offset="0" programID="0" type="static">
      <phase duration="26.4081414401" state="G"/>
      <phase duration="4.73994663017" state="y"/>
   </tlLogic>
   <tlLogic id="1360932319" offset="0" programID="0" type="static"/>
   <tlLogic id="1366801174" offset="0" programID="0" type="static">
      <phase duration="27.0180674199" state="G"/>
      <phase duration="6.35260100487" state="y"/>
   </tlLogic>
   <tlLogic id="1366801185" offset="0" programID="0" type="static">
      <phase duration="6.46732185712" state="G"/>
      <phase duration="9.80520245343" state="y"/>
   </tlLogic>
   <tlLogic id="1366801190" offset="0" programID="0" type="static"/>
   <tlLogic id="1366801194" offset="0" programID="0" type="static"/>
   <tlLogic id="1366801217" offset="0" programID="0" type="static">
      <phase duration="14.4615118245" state="G"/>
      <phase duration="6.69692740872" state="y"/>
   </tlLogic>
   <tlLogic id="1366801221" offset="0" programID="0" type="static">
      <phase duration="27.1846214148" state="Gr"/>
      <phase duration="2.67915363848" state="yr"/>
      <phase duration="27.1846214148" state="rG"/>
      <phase duration="2.67915363848" state="ry"/>
   </tlLogic>
   <tlLogic id="1492679681" offset="0" programID="0" type="static">
      <phase duration="17.8494783295" state="G"/>
      <phase duration="2.35037934859" state="y"/>
   </tlLogic>
   <tlLogic id="1492679687" offset="0" programID="0" type="static">
      <phase duration="27.0730723114" state="Gr"/>
      <phase duration="2.00241759426" state="yr"/>
      <phase duration="27.0730723114" state="rG"/>
      <phase duration="2.00241759426" state="ry"/>
   </tlLogic>
   <tlLogic id="1492679696" offset="0" programID="0" type="static">
      <phase duration="12.8286956994" state="Gr"/>
      <phase duration="2.91618066308" state="yr"/>
      <phase duration="12.8286956994" state="rG"/>
      <phase duration="2.91618066308" state="ry"/>
   </tlLogic>
   <tlLogic id="1492679714" offset="0" programID="0" type="static">
      <phase duration="9.00306759507" state="Gr"/>
      <phase duration="3.92686540633" state="yr"/>
      <phase duration="9.00306759507" state="rG"/>
      <phase duration="3.92686540633" state="ry"/>
   </tlLogic>
   <tlLogic id="1492679718" offset="0" programID="0" type="static"/>
   <tlLogic id="1492679723" offset="0" programID="0" type="static">
      <phase duration="28.4702908864" state="GGrrr"/>
      <phase duration="8.88052189146" state="yyrrr"/>
      <phase duration="28.4702908864" state="rrGrr"/>
      <phase duration="8.88052189146" state="rryrr"/>
      <phase duration="28.4702908864" state="rrrGG"/>
      <phase duration="8.88052189146" state="rrryy"/>
   </tlLogic>
   <tlLogic id="1492679731" offset="0" programID="0" type="static">
      <phase duration="7.09869673674" state="Gr"/>
      <phase duration="4.50608185862" state="yr"/>
      <phase duration="7.09869673674" state="rG"/>
      <phase duration="4.50608185862" state="ry"/>
   </tlLogic>
   <tlLogic id="1492679738" offset="0" programID="0" type="static">
      <phase duration="3.26954957146" state="G"/>
      <phase duration="6.85924720002" state="y"/>
   </tlLogic>
   <tlLogic id="1492679739" offset="0" programID="0" type="static">
      <phase duration="29.202968635" state="G"/>
      <phase duration="7.49519623643" state="y"/>
   </tlLogic>
   <tlLogic id="1492679741" offset="0" programID="0" type="static">
      <phase duration="14.2201511171" state="G"/>
      <phase duration="8.66195227191" state="y"/>
   </tlLogic>
   <tlLogic id="1492679749" offset="0" programID="0" type="static">