<?xml version="1.0" ?>
<tlLogics>
   <tlLogic id="1000099468" offset="0" programID="0" type="static">
      <phase duration="24.0619556098" state="G"/>
      <phase duration="6.62070511174" state="y"/>
   </tlLogic>
   <tlLogic id="1000099520" offset="0" programID="0" type="static">
      <phase duration="8.02847558282" state="G"/>
      <phase duration="3.74099979548" state="y"/>
   </tlLogic>
   <tlLogic id="1000099544" offset="0" programID="0" type="static">
      <phase duration="11.6188200458" state="GGrrr"/>
      <phase duration="8.25487067143" state="yyrrr"/>
      <phase duration="11.6188200458" state="rrGGr"/>
      <phase duration="8.25487067143" state="rryyr"/>
      <phase duration="11.6188200458" state="rrrrG"/>
      <phase duration="8.25487067143" state="rrrry"/>
   </tlLogic>
   <tlLogic id="1000099551" offset="0" programID="0" type="static">
      <phase duration="17.085450167" state="G"/>
      <phase duration="7.40428331188" state="y"/>
   </tlLogic>
   <tlLogic id="1000099553" offset="0" programID="0" type="static">
      <phase duration="21.5568507443" state="Gr"/>
      <phase duration="2.04373913498" state="yr"/>
      <phase duration="21.5568507443" state="rG"/>
      <phase duration="2.04373913498" state="ry"/>
   </tlLogic>
   <tlLogic id="1000099576" offset="0" programID="0" type="static">
      <phase duration="22.1083009171" state="Grrrr"/>
      <phase duration="8.07609548736" state="yrrrr"/>
      <phase duration="22.1083009171" state="rGGrr"/>
      <phase duration="8.07609548736" state="ryyrr"/>
      <phase duration="22.1083009171" state="rrrGG"/>
      <phase duration="8.07609548736" state="rrryy"/>
   </tlLogic>
   <tlLogic id="1000099591" offset="0" programID="0" type="static">
      <phase duration="16.3897469377" state="GGrr"/>
      <phase duration="8.85384726215" state="yyrr"/>
      <phase duration="16.3897469377" state="rrGG"/>
      <phase duration="8.85384726215" state="rryy"/>
   </tlLogic>
   <tlLogic id="1000099607" offset="0" programID="0" type="static">
      <phase duration="32.2089016965" state="GGr"/>
      <phase duration="8.84596579952" state="yyr"/>
      <phase duration="32.2089016965" state="rrG"/>
      <phase duration="8.84596579952" state="rry"/>
   </tlLogic>
   <tlLogic id="1000099651" offset="0" programID="0" type="static">
      <phase duration="3.45025581179" state="GGrrrr"/>
      <phase duration="6.30318131877" state="yyrrrr"/>
      <phase duration="3.45025581179" state="rrGGrr"/>
      <phase duration="6.30318131877" state="rryyrr"/>
      <phase duration="3.45025581179" state="rrrrGG"/>
      <phase duration="6.30318131877" state="rrrryy"/>
   </tlLogic>
   <tlLogic id="1000099724" offset="0" programID="0" type="static">
      <phase duration="12.8013816706" state="Grrr"/>
      <phase duration="6.93796144445" state="yrrr"/>
      <phase duration="12.8013816706" state="rGGG"/>
      <phase duration="6.93796144445" state="ryyy"/>
   </tlLogic>
   <tlLogic id="1000099788" offset="0" programID="0" type="static">
      <phase duration="30.4311157844" state="GGrr"/>
      <phase duration="9.76059370455" state="yyrr"/>
      <phase duration="30.4311157844" state="rrGG"/>
      <phase duration="9.76059370455" state="rryy"/>
   </tlLogic>
   <tlLogic id="1012321580" offset="0" programID="0" type="static">
      <phase duration="32.9553484783" state="Gr"/>
      <phase duration="3.16214106716" state="yr"/>
      <phase duration="32.9553484783" state="rG"/>
      <phase duration="3.16214106716" state="ry"/>
   </tlLogic>
   <tlLogic id="1028832186" offset="0" programID="0" type="static"/>
   <tlLogic id="1028832536" offset="0" programID="0" type="static"/>
   <tlLogic id="1037290889" offset="0" programID="0" type="static">
      <phase duration="33.9181988472" state="GGrr"/>
      <phase duration="8.68891932854" state="yyrr"/>
      <phase duration="33.9181988472" state="rrGG"/>
      <phase duration="8.68891932854" state="rryy"/>
   </tlLogic>
   <tlLogic id="1037290915" offset="0" programID="0" type="static">
      <phase duration="27.0844804316" state="GGrrr"/>
      <phase duration="7.8060629364" state="yyrrr"/>
      <phase duration="27.0844804316" state="rrGGG"/>
      <phase duration="7.8060629364" state="rryyy"/>
   </tlLogic>
   <tlLogic id="1040964328" offset="0" programID="0" type="static">
      <phase duration="10.6240706071" state="Gr"/>
      <phase duration="6.85558381243" state="yr"/>
      <phase duration="10.6240706071" state="rG"/>
      <phase duration="6.85558381243" state="ry"/>
   </tlLogic>
   <tlLogic id="1045044803" offset="0" programID="0" type="static">
      <phase duration="21.2735802152" state="Gr"/>
      <phase duration="5.11612341934" state="yr"/>
      <phase duration="21.2735802152" state="rG"/>
      <phase duration="5.11612341934" state="ry"/>
   </tlLogic>
   <tlLogic id="1045044863" offset="0" programID="0" type="static">
      <phase duration="19.5207949094" state="G"/>
      <phase duration="7.35594355941" state="y"/>
   </tlLogic>
   <tlLogic id="1062771951" offset="0" programID="0" type="static">
      <phase duration="31.2496066983" state="GGrr"/>
      <phase duration="7.47962108333" state="yyrr"/>
      <phase duration="31.2496066983" state="rrGG"/>
      <phase duration="7.47962108333" state="rryy"/>
   </tlLogic>
   <tlLogic id="1062771990" offset="0" programID="0" type="static">
      <phase duration="36.8173170432" state="G"/>
      <phase duration="9.64140733474" state="y"/>
   </tlLogic>
   <tlLogic id="1123630986" offset="0" programID="0" type="static">
      <phase duration="30.1467880833" state="G"/>
      <phase duration="9.46532314451" state="y"/>
   </tlLogic>
   <tlLogic id="1149210260" offset="0" programID="0" type="static">
      <phase duration="6.09112762722" state="Gr"/>
      <phase duration="4.74545714027" state="yr"/>
      <phase duration="6.09112762722" state="rG"/>
      <phase duration="4.74545714027" state="ry"/>
   </tlLogic>
   <tlLogic id="1150667539" offset="0" programID="0" type="static">
      <phase duration="9.39965338294" state="G"/>
      <phase duration="7.53850966995" state="y"/>
   </tlLogic>
   <tlLogic id="1150667540" offset="0" programID="0" type="static">
      <phase duration="15.2297598278" state="G"/>
      <phase duration="5.42647565711" state="y"/>
   </tlLogic>
   <tlLogic id="1150667558" offset="0" programID="0" type="static">
      <phase duration="9.88279923097" state="Gr"/>
      <phase duration="7.4303150955" state="yr"/>
      <phase duration="9.88279923097" state="rG"/>
      <phase duration="7.4303150955" state="ry"/>
   </tlLogic>
   <tlLogic id="1150667560" offset="0" programID="0" type="static">
      <phase duration="27.0787484475" state="G"/>
      <phase duration="8.62752598882" state="y"/>
   </tlLogic>
   <tlLogic id="1150667568" offset="0" programID="0" type="static"/>
   <tlLogic id="1150667586" offset="0" programID="0" type="static">
      <phase duration="7.76345432397" state="G"/>
      <phase duration="7.3255112409" state="y"/>
   </tlLogic>
   <tlLogic id="1150667603" offset="0" programID="0" type="static">
      <phase duration="32.500790791" state="Gr"/>
      <phase duration="6.17420526798" state="yr"/>
      <phase duration="32.500790791" state="rG"/>
      <phase duration="6.17420526798" state="ry"/>
   </tlLogic>
   <tlLogic id="1150667604" offset="0" programID="0" type="static">
      <phase duration="9.40086203231" state="Gr"/>
      <phase duration="8.1278307173" state="yr"/>
      <phase duration="9.40086203231" state="rG"/>
      <phase duration="8.1278307173" state="ry"/>
   </tlLogic>
   <tlLogic id="1150667608" offset="0" programID="0" type="static">
      <phase duration="34.7705621051" state="Gr"/>
      <phase duration="7.51872605161" state="yr"/>
      <phase duration="34.7705621051" state="rG"/>
      <phase duration="7.51872605161" state="ry"/>
   </tlLogic>
   <tlLogic id="1150667622" offset="0" programID="0" type="static">
      <phase duration="26.4374681903" state="G"/>
      <phase duration="9.43212544427" state="y"/>
   </tlLogic>
   <tlLogic id="1156723834" offset="0" programID="0" type="static">
      <phase duration="22.5257344136" state="G"/>
      <phase duration="3.45921856047" state="y"/>
   </tlLogic>
   <tlLogic id="1200892960" offset="0" programID="0" type="static">
      <phase duration="18.2113487429" state="Gr"/>
      <phase duration="4.91470915338" state="yr"/>
      <phase duration="18.2113487429" state="rG"/>
      <phase duration="4.91470915338" state="ry"/>
   </tlLogic>
   <tlLogic id="1201745377" offset="0" programID="0" type="static">
      <phase duration="17.7630720116" state="G"/>
      <phase duration="9.71280516195" state="y"/>
   </tlLogic>
   <tlLogic id="1201745399" offset="0" programID="0" type="static"/>
   <tlLogic id="1201745409" offset="0" programID="0" type="static">
      <phase duration="17.5529610239" state="G"/>
      <phase duration="1.34719646583" state="y"/>
   </tlLogic>
   <tlLogic id="1211136595" offset="0" programID="0" type="static">
      <phase duration="34.5850543256" state="G"/>
      <phase duration="9.14332027293" state="y"/>
   </tlLogic>
   <tlLogic id="1211136870" offset="0" programID="0" type="static">
      <phase duration="25.6064243806" state="GGrr"/>
      <phase duration="7.44043903914" state="yyrr"/>
      <phase duration="25.6064243806" state="rrGG"/>
      <phase duration="7.44043903914" state="rryy"/>
   </tlLogic>
   <tlLogic id="1220020588" offset="0" programID="0" type="static">
      <phase duration="27.848096487" state="GGrr"/>
      <phase duration="9.00068265355" state="yyrr"/>
      <phase duration="27.848096487" state="rrGG"/>
      <phase duration="9.00068265355" state="rryy"/>
   </tlLogic>
   <tlLogic id="1220020592" offset="0" programID="0" type="static">
      <phase duration="27.9506407004" state="Gr"/>
      <phase duration="6.92715053518" state="yr"/>
      <phase duration="27.9506407004" state="rG"/>
      <phase duration="6.92715053518" state="ry"/>
   </tlLogic>
   <tlLogic id="1220020656" offset="0" programID="0" type="static">
      <phase duration="16.5316416674" state="GGrr"/>
      <phase duration="4.62716642758" state="yyrr"/>
      <phase duration="16.5316416674" state="rrGG"/>
      <phase duration="4.62716642758" state="rryy"/>
   </tlLogic>
   <tlLogic id="1220020679" offset="0" programID="0" type="static">
      <phase duration="25.947279322" state="GGrr"/>
      <phase duration="7.41522906089" state="yyrr"/>
      <phase duration="25.947279322" state="rrGG"/>
      <phase duration="7.41522906089" state="rryy"/>
   </tlLogic>
   <tlLogic id="1229522462" offset="0" programID="0" type="static">
      <phase duration="15.8585336634" state="G"/>
      <phase duration="8.53512252926" state="y"/>
   </tlLogic>
   <tlLogic id="1229522552" offset="0" programID="0" type="static">
      <phase duration="10.6465446856" state="G"/>
      <phase duration="5.75506959781" state="y"/>
   </tlLogic>
   <tlLogic id="1252285082" offset="0" programID="0" type="static">
      <phase duration="30.5470496033" state="G"/>
      <phase duration="4.01464397012" state="y"/>
   </tlLogic>
   <tlLogic id="1252285087" offset="0" programID="0" type="static"/>
   <tlLogic id="1252285093" offset="0" programID="0" type="static">
      <phase duration="26.403565642" state="Gr"/>
      <phase duration="7.27656925883" state="yr"/>
      <phase duration="26.403565642" state="rG"/>
      <phase duration="7.27656925883" state="ry"/>
   </tlLogic>
   <tlLogic id="1252285105" offset="0" programID="0" type="static">
      <phase duration="25.6932143336" state="G"/>
      <phase duration="2.41372044506" state="y"/>
   </tlLogic>
   <tlLogic id="1252285107" offset="0" programID="0" type="static">
      <phase duration="21.3708724093" state="G"/>
      <phase duration="8.27877967626" state="y"/>
   </tlLogic>
   <tlLogic id="1252285133" offset="0" programID="0" type="static">
      <phase duration="31.6277302434" state="Gr"/>
      <phase duration="8.78899138073" state="yr"/>
      <phase duration="31.6277302434" state="rG"/>
      <phase duration="8.78899138073" state="ry"/>
   </tlLogic>
   <tlLogic id="1252285137" offset="0" programID="0" type="static">
      <phase duration="24.4726303277" state="Gr"/>
      <phase duration="9.33227369006" state="yr"/>
      <phase duration="24.4726303277" state="rG"/>
      <phase duration="9.33227369006" state="ry"/>
   </tlLogic>
   <tlLogic id="1271504747" offset="0" programID="0" type="static">
      <phase duration="33.5486651129" state="Gr"/>
      <phase duration="9.30454006072" state="yr"/>
      <phase duration="33.5486651129" state="rG"/>
      <phase duration="9.30454006072" state="ry"/>
   </tlLogic>
   <tlLogic id="1271504748" offset="0" programID="0" type="static">
      <phase duration="6.10706698987" state="Gr"/>
      <phase duration="9.94473931044" state="yr"/>
      <phase duration="6.10706698987" state="rG"/>
      <phase duration="9.94473931044" state="ry"/>
   </tlLogic>
   <tlLogic id="1271504750" offset="0" programID="0" type="static">
      <phase duration="10.8623164421" state="G"/>
      <phase duration="6.51008523996" state="y"/>
   </tlLogic>
   <tlLogic id="1271504755" offset="0" programID="0" type="static">
      <phase duration="14.2313150285" state="GGrrr"/>
      <phase duration="4.77799318059" state="yyrrr"/>
      <phase duration="14.2313150285" state="rrGrr"/>
      <phase duration="4.77799318059" state="rryrr"/>
      <phase duration="14.2313150285" state="rrrGG"/>
      <phase duration="4.77799318059" state="rrryy"/>
   </tlLogic>
   <tlLogic id="1271504757" offset="0" programID="0" type="static">
      <phase duration="18.1923445331" state="GGrrr"/>
      <phase duration="8.09809196317" state="yyrrr"/>
      <phase duration="18.1923445331" state="rrGrr"/>
      <phase duration="8.09809196317" state="rryrr"/>
      <phase duration="18.1923445331" state="rrrGG"/>
      <phase duration="8.09809196317" state="rrryy"/>
   </tlLogic>
   <tlLogic id="1271504758" offset="0" programID="0" type="static">
      <phase duration="38.9236079531" state="G"/>
      <phase duration="7.52808620666" state="y"/>
   </tlLogic>
   <tlLogic id="1271504762" offset="0" programID="0" type="static">
      <phase duration="17.7612841097" state="G"/>
      <phase duration="7.3122242786" state="y"/>
   </tlLogic>
   <tlLogic id="1271504766" offset="0" programID="0" type="static">
      <phase duration="7.91985927701" state="Gr"/>
      <phase duration="4.59912638455" state="yr"/>
      <phase duration="7.91985927701" state="rG"/>
      <phase duration="4.59912638455" state="ry"/>
   </tlLogic>
   <tlLogic id="1271504770" offset="0" programID="0" type="static">
      <phase duration="14.979663399" state="Gr"/>
      <phase duration="5.82024457118" state="yr"/>
      <phase duration="14.979663399" state="rG"/>
      <phase duration="5.82024457118" state="ry"/>
   </tlLogic>
   <tlLogic id="1271504774" offset="0" programID="0" type="static">
      <phase duration="16.828823724" state="G"/>
      <phase duration="8.58595086685" state="y"/>
   </tlLogic>
   <tlLogic id="1271504778" offset="0" programID="0" type="static">
      <phase duration="14.2533222183" state="G"/>
      <phase duration="4.3853894373" state="y"/>
   </tlLogic>
   <tlLogic id="1271504783" offset="0" programID="0" type="static">
      <phase duration="25.1816613157" state="Gr"/>
      <phase duration="9.59172611115" state="yr"/>
      <phase duration="25.1816613157" state="rG"/>
      <phase duration="9.59172611115" state="ry"/>
   </tlLogic>
   <tlLogic id="1271504788" offset="0" programID="0" type="static">
      <phase duration="16.5195106483" state="GGrrr"/>
      <phase duration="6.13640201488" state="yyrrr"/>
      <phase duration="16.5195106483" state="rrGGG"/>
      <phase duration="6.13640201488" state="rryyy"/>
   </tlLogic>
   <tlLogic id="1271504804" offset="0" programID="0" type="static">
      <phase duration="16.03076889" state="Gr"/>
      <phase duration="3.62345182294" state="yr"/>
      <phase duration="16.03076889" state="rG"/>
      <phase duration="3.62345182294" state="ry"/>
   </tlLogic>
   <tlLogic id="1271504812" offset="0" programID="0" type="static">
      <phase duration="8.42099122717" state="G"/>
      <phase duration="9.42949751549" state="y"/>
   </tlLogic>
   <tlLogic id="1271504813" offset="0" programID="0" type="static">
      <phase duration="8.04201377202" state="G"/>
      <phase duration="7.87718825317" state="y"/>
   </tlLogic>
   <tlLogic id="1271504815" offset="0" programID="0" type="static">
      <phase duration="3.55285540158" state="Gr"/>
      <phase duration="8.34815727294" state="yr"/>
      <phase duration="3.55285540158" state="rG"/>
      <phase duration="8.34815727294" state="ry"/>
   </tlLogic>
   <tlLogic id="1271504816" offset="0" programID="0" type="static">
      <phase duration="19.7919908285" state="G"/>
      <phase duration="4.36786603903" state="y"/>
   </tlLogic>
   <tlLogic id="1271504817" offset="0" programID="0" type="static">
      <phase duration="28.4430660662" state="G"/>
      <phase duration="5.88197674342" state="y"/>
   </tlLogic>
   <tlLogic id="1271504819" offset="0" programID="0" type="static">
      <phase duration="5.99605244925" state="Gr"/>
      <phase duration="9.54051092605" state="yr"/>
      <phase duration="5.99605244925" state="rG"/>
      <phase duration="9.54051092605" state="ry"/>
   </tlLogic>
   <tlLogic id="1271504824" offset="0" programID="0" type="static">
      <phase duration="31.0857573281" state="G"/>
      <phase duration="5.32731327353" state="y"/>
   </tlLogic>
   <tlLogic id="1271504827" offset="0" programID="0" type="static">
      <phase duration="8.23022422767" state="Gr"/>
      <phase duration="3.82270299993" state="yr"/>
      <phase duration="8.23022422767" state="rG"/>
      <phase duration="3.82270299993" state="ry"/>
   </tlLogic>
   <tlLogic id="1271504830" offset="0" programID="0" type="static">
      <phase duration="18.4766558152" state="GGrrr"/>
      <phase duration="7.43200394159" state="yyrrr"/>
      <phase duration="18.4766558152" state="rrGrr"/>
      <phase duration="7.43200394159" state="rryrr"/>
      <phase duration="18.4766558152" state="rrrGG"/>
      <phase duration="7.43200394159" state="rrryy"/>
   </tlLogic>
   <tlLogic id="1271504832" offset="0" programID="0" type="static">
      <phase duration="15.0634832923" state="Gr"/>
      <phase duration="7.98208385607" state="yr"/>
      <phase duration="15.0634832923" state="rG"/>
      <phase duration="7.98208385607" state="ry"/>
   </tlLogic>
   <tlLogic id="1271504834" offset="0" programID="0" type="static">
      <phase duration="13.3436039483" state="G"/>
      <phase duration="7.45392945861" state="y"/>
   </tlLogic>
   <tlLogic id="1271504842" offset="0" programID="0" type="static">
      <phase duration="32.5824446288" state="G"/>
      <phase duration="9.10594532288" state="y"/>
   </tlLogic>
   <tlLogic id="1271504844" offset="0" programID="0" type="static">
      <phase duration="15.191396567" state="G"/>
      <phase duration="8.76571355165" state="y"/>
   </tlLogic>
   <tlLogic id="1271504845" offset="0" programID="0" type="static">
      <phase duration="14.0314420174" state="G"/>
      <phase duration="5.63991541338" state="y"/>
   </tlLogic>
   <tlLogic id="1271504858" offset="0" programID="0" type="static">
      <phase duration="23.6873073257" state="G"/>
      <phase duration="5.31370195904" state="y"/>
   </tlLogic>
   <tlLogic id="1271504861" offset="0" programID="0" type="static">
      <phase duration="16.4616104746" state="G"/>
      <phase duration="6.35664636668" state="y"/>
   </tlLogic>
   <tlLogic id="1271504864" offset="0" programID="0" type="static">
      <phase duration="18.031579199" state="G"/>
      <phase duration="6.74418850535" state="y"/>
   </tlLogic>
   <tlLogic id="1271504867" offset="0" programID="0" type="static">
      <phase duration="22.8023092022" state="G"/>
      <phase duration="8.67894495511" state="y"/>
   </tlLogic>
   <tlLogic id="1271504870" offset="0" programID="0" type="static">
      <phase duration="37.7007384489" state="G"/>
      <phase duration="1.27047036374" state="y"/>
   </tlLogic>
   <tlLogic id="1271504872" offset="0" programID="0" type="static">
      <phase duration="27.4016158304" state="G"/>
      <phase duration="2.42820483732" state="y"/>
   </tlLogic>
   <tlLogic id="1271504873" offset="0" programID="0" type="static">
      <phase duration="24.3889161046" state="GGrrr"/>
      <phase duration="4.79978795743" state="yyrrr"/>
      <phase duration="24.3889161046" state="rrGrr"/>
      <phase duration="4.79978795743" state="rryrr"/>
      <phase duration="24.3889161046" state="rrrGG"/>
      <phase duration="4.79978795743" state="rrryy"/>
   </tlLogic>
   <tlLogic id="1271504875" offset="0" programID="0" type="static">
      <phase duration="7.88512203707" state="G"/>
      <phase duration="9.91188465455" state="y"/>
   </tlLogic>
   <tlLogic id="1271504878" offset="0" programID="0" type="static">
      <phase duration="26.0584868477" state="G"/>
      <phase duration="4.68707713929" state="y"/>
   </tlLogic>
   <tlLogic id="1271504881" offset="0" programID="0" type="static">
      <phase duration="31.2345274932" state="GGrrr"/>
      <phase duration="4.70696738255" state="yyrrr"/>
      <phase duration="31.2345274932" state="rrGrr"/>
      <phase duration="4.70696738255" state="rryrr"/>
      <phase duration="31.2345274932" state="rrrGG"/>
      <phase duration="4.70696738255" state="rrryy"/>
   </tlLogic>
   <tlLogic id="1271504889" offset="0" programID="0" type="static">
      <phase duration="13.4808338071" state="Gr"/>
      <phase duration="1.08819564025" state="yr"/>
      <phase duration="13.4808338071" state="rG"/>
      <phase duration="1.08819564025" state="ry"/>
   </tlLogic>
   <tlLogic id="1271504891" offset="0" programID="0" type="static">
      <phase duration="27.0285179311" state="G"/>
      <phase duration="5.13751715258" state="y"/>
   </tlLogic>
   <tlLogic id="1271504893" offset="0" programID="0" type="static">
      <phase duration="21.6321823547" state="GGrrr"/>
      <phase duration="7.94976581656" state="yyrrr"/>
      <phase duration="21.6321823547" state="rrGrr"/>
      <phase duration="7.94976581656" state="rryrr"/>
      <phase duration="21.6321823547" state="rrrGG"/>
      <phase duration="7.94976581656" state="rrryy"/>
   </tlLogic>
   <tlLogic id="1271504898" offset="0" programID="0" type="static">
      <phase duration="20.4896718358" state="Gr"/>
      <phase duration="4.09301156832" state="yr"/>
      <phase duration="20.4896718358" state="rG"/>
      <phase duration="4.09301156832" state="ry"/>
   </tlLogic>
   <tlLogic id="1271504899" offset="0" programID="0" type="static">
      <phase duration="14.149558839" state="G"/>
      <phase duration="7.80261647067" state="y"/>
   </tlLogic>
   <tlLogic id="1271504901" offset="0" programID="0" type="static">
      <phase duration="25.3868190695" state="GGrrr"/>
      <phase duration="8.39170368165" state="yyrrr"/>
      <phase duration="25.3868190695" state="rrGrr"/>
      <phase duration="8.39170368165" state="rryrr"/>
      <phase duration="25.3868190695" state="rrrGG"/>
      <phase duration="8.39170368165" state="rrryy"/>
   </tlLogic>
   <tlLogic id="1271504904" offset="0" programID="0" type="static">
      <phase duration="22.9024499582" state="Grr"/>
      <phase duration="9.9085898373" state="yrr"/>
      <phase duration="22.9024499582" state="rGG"/>
      <phase duration="9.9085898373" state="ryy"/>
   </tlLogic>
   <tlLogic id="1271504905" offset="0" programID="0" type="static">
      <phase duration="29.9612454287" state="G"/>
      <phase duration="6.16852328113" state="y"/>
   </tlLogic>
   <tlLogic id="1271504907" offset="0" programID="0" type="static">
      <phase duration="37.9725937214" state="G"/>
      <phase duration="4.87344077317" state="y"/>
   </tlLogic>
   <tlLogic id="1271504908" offset="0" programID="0" type="static">
      <phase duration="15.9269162513" state="G"/>
      <phase duration="6.00546065923" state="y"/>
   </tlLogic>
   <tlLogic id="1271504911" offset="0" programID="0" type="static">
      <phase duration="7.91086109251" state="G"/>
      <phase duration="8.16844398721" state="y"/>
   </tlLogic>
   <tlLogic id="1271504914" offset="0" programID="0" type="static">
      <phase duration="17.6470746686" state="G"/>
      <phase duration="3.33171182398" state="y"/>
   </tlLogic>
   <tlLogic id="1299369678" offset="0" programID="0" type="static">
      <phase duration="16.5241271061" state="G"/>
      <phase duration="4.37532090322" state="y"/>
   </tlLogic>
   <tlLogic id="1299369684" offset="0" programID="0" type="static">
      <phase duration="26.821486719" state="G"/>
      <phase duration="4.17067875792" state="y"/>
   </tlLogic>
   <tlLogic id="1299369686" offset="0" programID="0" type="static">
      <phase duration="38.8749760724" state="G"/>
      <phase duration="4.7964379797" state="y"/>
   </tlLogic>
   <tlLogic id="1299369689" offset="0" programID="0" type="static">
      <phase duration="21.15328771" state="GGrrr"/>
      <phase duration="3.02660864998" state="yyrrr"/>
      <phase duration="21.15328771" state="rrGrr"/>
      <phase duration="3.02660864998" state="rryrr"/>
      <phase duration="21.15328771" state="rrrGG"/>
      <phase duration="3.02660864998" state="rrryy"/>
   </tlLogic>
   <tlLogic id="1299369697" offset="0" programID="0" type="static">
      <phase duration="16.0912838773" state="G"/>
      <phase duration="7.29920260342" state="y"/>
   </tlLogic>
   <tlLogic id="1299369701" offset="0" programID="0" type="static">
      <phase duration="30.5555663873" state="GGrrr"/>
      <phase duration="9.85805082369" state="yyrrr"/>
      <phase duration="30.5555663873" state="rrGrr"/>
      <phase duration="9.85805082369" state="rryrr"/>
      <phase duration="30.5555663873" state="rrrGG"/>
      <phase duration="9.85805082369" state="rrryy"/>
   </tlLogic>
   <tlLogic id="1312440651" offset="0" programID="0" type="static">
      <phase duration="17.0501620436" state="G"/>
      <phase duration="4.72811643347" state="y"/>
   </tlLogic>
   <tlLogic id="1353566368" offset="0" programID="0" type="static">
      <phase duration="32.146491112" state="G"/>
      <phase duration="5.82634763193" state="y"/>
   </tlLogic>
   <tlLogic id="1353566371" offset="0" programID="0" type="static">
      <phase duration="20.0893762782" state="G"/>
      <phase duration="4.24942518707" state="y"/>
   </tlLogic>
   <tlLogic id="1360932319" offset="0" programID="0" type="static"/>
   <tlLogic id="1366801185" offset="0" programID="0" type="static">
      <phase duration="30.1474319915" state="G"/>
      <phase duration="3.67980730773" state="y"/>
   </tlLogic>
   <tlLogic id="1366801190" offset="0" programID="0" type="static"/>
   <tlLogic id="1366801204" offset="0" programID="0" type="static">
      <phase duration="27.6709786647" state="G"/>
      <phase duration="9.81286832347" state="y"/>
   </tlLogic>
   <tlLogic id="1366801221" offset="0" programID="0" type="static">
      <phase duration="18.2456051581" state="Gr"/>
      <phase duration="8.40371321798" state="yr"/>
      <phase duration="18.2456051581" state="rG"/>
      <phase duration="8.40371321798" state="ry"/>
   </tlLogic>
   <tlLogic id="1366801262" offset="0" programID="0" type="static">
      <phase duration="32.2190596559" state="G"/>
      <phase duration="6.08397206495" state="y"/>
   </tlLogic>
   <tlLogic id="1492679675" offset="0" programID="0" type="static">
      <phase duration="15.0595128189" state="Gr"/>
      <phase duration="8.27107248303" state="yr"/>
      <phase duration="15.0595128189" state="rG"/>
      <phase duration="8.27107248303" state="ry"/>
   </tlLogic>
   <tlLogic id="1492679678" offset="0" programID="0" type="static">
      <phase duration="8.67514247232" state="Gr"/>
      <phase duration="6.87037621784" state="yr"/>
      <phase duration="8.67514247232" state="rG"/>
      <phase duration="6.87037621784" state="ry"/>
   </tlLogic>
   <tlLogic id="1492679681" offset="0" programID="0" type="static">
      <phase duration="21.9129765646" state="G"/>
      <phase duration="6.90847306617" state="y"/>
   </tlLogic>
   <tlLogic id="1492679718" offset="0" programID="0" type="static"/>
   <tlLogic id="1492679729" offset="0" programID="0" type="static">
      <phase duration="24.3709821909" state="G"/>
      <phase duration="8.20190410201" state="y"/>
   </tlLogic>
   <tlLogic id="1492679731" offset="0" programID="0" type="static">
      <phase duration="35.2638734358" state="Gr"/>
      <phase duration="5.36526957076" state="yr"/>
      <phase duration="35.2638734358" state="rG"/>
      <phase duration="5.36526957076" state="ry"/>
   </tlLogic>
   <tlLogic id="1492679733" offset="0" programID="0" type="static">
      <phase duration="17.6773279517" state="Gr"/>
      <phase duration="9.12533111325" state="yr"/>
      <phase duration="17.6773279517" state="rG"/>
      <phase duration="9.12533111325" state="ry"/>
   </tlLogic>
   <tlLogic id="1492679738" offset="0" programID="0" type="static">
      <phase duration="24.8075703061" state="G"/>
      <phase duration="9.29829894334" state="y"/>
   </tlLogic>
   <tlLogic id="1492679739" offset="0" programID="0" type="static">
      <phase duration="7.33350719372" state="G"/>
      <phase duration="7.68071765238" state="y"/>
   </tlLogic>
   <tlLogic id="1492679749" offset="0" programID="0" type="static">
      <phase duration="32.4773792576" state="GGrrr"/>
      <phase duration="6.5108647017" state="yyrrr"/>
      <phase duration="32.4773792576" state="rrGGr"/>
      <phase duration="6.5108647017" state="rryyr"/>
      <phase duration="32.4773792576" state="rrrrG"/>
      <phase duration="6.5108647017" state="rrrry"/>
   </tlLogic>