<?xml version="1.0" ?>
<tlLogics>
   <tlLogic id="1000099490" offset="0" programID="0" type="static">
      <phase duration="28.7641693681" state="Gr"/>
      <phase duration="4.56297638287" state="yr"/>
      <phase duration="28.7641693681" state="rG"/>
      <phase duration="4.56297638287" state="ry"/>
   </tlLogic>
   <tlLogic id="1000099551" offset="0" programID="0" type="static">
      <phase duration="7.19640103739" state="G"/>
      <phase duration="7.14720957723" state="y"/>
   </tlLogic>
   <tlLogic id="1000099553" offset="0" programID="0" type="static">
      <phase duration="15.2663072266" state="Gr"/>
      <phase duration="7.02493598843" state="yr"/>
      <phase duration="15.2663072266" state="rG"/>
      <phase duration="7.02493598843" state="ry"/>
   </tlLogic>
   <tlLogic id="1000099576" offset="0" programID="0" type="static">
      <phase duration="39.9244211926" state="Grrrr"/>
      <phase duration="9.54358770969" state="yrrrr"/>
      <phase duration="39.9244211926" state="rGGrr"/>
      <phase duration="9.54358770969" state="ryyrr"/>
      <phase duration="39.9244211926" state="rrrGG"/>
      <phase duration="9.54358770969" state="rrryy"/>
   </tlLogic>
   <tlLogic id="1000099591" offset="0" programID="0" type="static">
      <phase duration="8.22332671446" state="GGrr"/>
      <phase duration="10.0" state="yyrr"/>
      <phase duration="8.22332671446" state="rrGG"/>
      <phase duration="10.0" state="rryy"/>
   </tlLogic>
   <tlLogic id="1000099607" offset="0" programID="0" type="static">
      <phase duration="30.2763164559" state="GGr"/>
      <phase duration="5.53648468955" state="yyr"/>
      <phase duration="30.2763164559" state="rrG"/>
      <phase duration="5.53648468955" state="rry"/>
   </tlLogic>
   <tlLogic id="1000099650" offset="0" programID="0" type="static">
      <phase duration="30.9481852508" state="G"/>
      <phase duration="10.0" state="y"/>
   </tlLogic>
   <tlLogic id="1000099788" offset="0" programID="0" type="static">
      <phase duration="27.0081151636" state="GGrr"/>
      <phase duration="3.90106586231" state="yyrr"/>
      <phase duration="27.0081151636" state="rrGG"/>
      <phase duration="3.90106586231" state="rryy"/>
   </tlLogic>
   <tlLogic id="1012326820" offset="0" programID="0" type="static">
      <phase duration="15.9390567543" state="G"/>
      <phase duration="6.91685422003" state="y"/>
   </tlLogic>
   <tlLogic id="1028832536" offset="0" programID="0" type="static"/>
   <tlLogic id="1037290822" offset="0" programID="0" type="static">
      <phase duration="17.0113927725" state="GGrr"/>
      <phase duration="4.75576719268" state="yyrr"/>
      <phase duration="17.0113927725" state="rrGG"/>
      <phase duration="4.75576719268" state="rryy"/>
   </tlLogic>
   <tlLogic id="1037290863" offset="0" programID="0" type="static">
      <phase duration="17.133900988" state="GGrr"/>
      <phase duration="3.49994366338" state="yyrr"/>
      <phase duration="17.133900988" state="rrGG"/>
      <phase duration="3.49994366338" state="rryy"/>
   </tlLogic>
   <tlLogic id="1040964328" offset="0" programID="0" type="static">
      <phase duration="20.1384072313" state="Gr"/>
      <phase duration="10.0" state="yr"/>
      <phase duration="20.1384072313" state="rG"/>
      <phase duration="10.0" state="ry"/>
   </tlLogic>
   <tlLogic id="1045044715" offset="0" programID="0" type="static">
      <phase duration="22.1199820447" state="Gr"/>
      <phase duration="7.29993892833" state="yr"/>
      <phase duration="22.1199820447" state="rG"/>
      <phase duration="7.29993892833" state="ry"/>
   </tlLogic>
   <tlLogic id="1045044750" offset="0" programID="0" type="static">
      <phase duration="33.0238875475" state="Gr"/>
      <phase duration="3.50713414267" state="yr"/>
      <phase duration="33.0238875475" state="rG"/>
      <phase duration="3.50713414267" state="ry"/>
   </tlLogic>
   <tlLogic id="1045044803" offset="0" programID="0" type="static">
      <phase duration="32.1902184039" state="Gr"/>
      <phase duration="9.43257971069" state="yr"/>
      <phase duration="32.1902184039" state="rG"/>
      <phase duration="9.43257971069" state="ry"/>
   </tlLogic>
   <tlLogic id="1045044863" offset="0" programID="0" type="static">
      <phase duration="26.0805262623" state="G"/>
      <phase duration="4.30894192364" state="y"/>
   </tlLogic>
   <tlLogic id="1062771990" offset="0" programID="0" type="static">
      <phase duration="39.5352348486" state="G"/>
      <phase duration="9.88271964814" state="y"/>
   </tlLogic>
   <tlLogic id="1109589944" offset="0" programID="0" type="static">
      <phase duration="9.22618757851" state="GGGrrrrrr"/>
      <phase duration="9.57983146357" state="yyyrrrrrr"/>
      <phase duration="9.22618757851" state="rrrGGGrrr"/>
      <phase duration="9.57983146357" state="rrryyyrrr"/>
      <phase duration="9.22618757851" state="rrrrrrGGG"/>
      <phase duration="9.57983146357" state="rrrrrryyy"/>
   </tlLogic>
   <tlLogic id="1123630986" offset="0" programID="0" type="static">
      <phase duration="27.9287823468" state="G"/>
      <phase duration="9.83217469568" state="y"/>
   </tlLogic>
   <tlLogic id="1125127500" offset="0" programID="0" type="static">
      <phase duration="27.3813328039" state="GG"/>
      <phase duration="9.45562369733" state="yy"/>
   </tlLogic>
   <tlLogic id="1150667539" offset="0" programID="0" type="static">
      <phase duration="11.1803961371" state="G"/>
      <phase duration="3.84009138721" state="y"/>
   </tlLogic>
   <tlLogic id="1150667540" offset="0" programID="0" type="static">
      <phase duration="23.3907863315" state="G"/>
      <phase duration="7.26717347232" state="y"/>
   </tlLogic>
   <tlLogic id="1150667558" offset="0" programID="0" type="static">
      <phase duration="17.8577127823" state="Gr"/>
      <phase duration="6.66773277909" state="yr"/>
      <phase duration="17.8577127823" state="rG"/>
      <phase duration="6.66773277909" state="ry"/>
   </tlLogic>
   <tlLogic id="1150667560" offset="0" programID="0" type="static">
      <phase duration="34.0474988935" state="G"/>
      <phase duration="2.90897379835" state="y"/>
   </tlLogic>
   <tlLogic id="1150667571" offset="0" programID="0" type="static">
      <phase duration="26.9187323674" state="G"/>
      <phase duration="5.40381674517" state="y"/>
   </tlLogic>
   <tlLogic id="1150667586" offset="0" programID="0" type="static">
      <phase duration="4.29290235665" state="G"/>
      <phase duration="7.47051322708" state="y"/>
   </tlLogic>
   <tlLogic id="1150667604" offset="0" programID="0" type="static">
      <phase duration="13.964057102" state="Gr"/>
      <phase duration="9.20971938073" state="yr"/>
      <phase duration="13.964057102" state="rG"/>
      <phase duration="9.20971938073" state="ry"/>
   </tlLogic>
   <tlLogic id="1150667622" offset="0" programID="0" type="static">
      <phase duration="11.6146946402" state="G"/>
      <phase duration="3.93431627077" state="y"/>
   </tlLogic>
   <tlLogic id="1156723779" offset="0" programID="0" type="static">
      <phase duration="18.7180924678" state="GGrrr"/>
      <phase duration="8.45835812872" state="yyrrr"/>
      <phase duration="18.7180924678" state="rrGrr"/>
      <phase duration="8.45835812872" state="rryrr"/>
      <phase duration="18.7180924678" state="rrrGG"/>
      <phase duration="8.45835812872" state="rrryy"/>
   </tlLogic>
   <tlLogic id="1156723834" offset="0" programID="0" type="static">
      <phase duration="17.0699475102" state="G"/>
      <phase duration="10.0" state="y"/>
   </tlLogic>
   <tlLogic id="1200892960" offset="0" programID="0" type="static">
      <phase duration="24.269306778" state="Gr"/>
      <phase duration="7.56223501634" state="yr"/>
      <phase duration="24.269306778" state="rG"/>
      <phase duration="7.56223501634" state="ry"/>
   </tlLogic>
   <tlLogic id="1201745377" offset="0" programID="0" type="static">
      <phase duration="13.0228296945" state="G"/>
      <phase duration="7.93579869449" state="y"/>
   </tlLogic>
   <tlLogic id="1211136497" offset="0" programID="0" type="static">
      <phase duration="12.024158009" state="GGrr"/>
      <phase duration="4.34353450162" state="yyrr"/>
      <phase duration="12.024158009" state="rrGG"/>
      <phase duration="4.34353450162" state="rryy"/>
   </tlLogic>
   <tlLogic id="1211136595" offset="0" programID="0" type="static">
      <phase duration="29.9023995356" state="G"/>
      <phase duration="6.24077604632" state="y"/>
   </tlLogic>
   <tlLogic id="1220020592" offset="0" programID="0" type="static">
      <phase duration="35.4405390518" state="Gr"/>
      <phase duration="8.18029469955" state="yr"/>
      <phase duration="35.4405390518" state="rG"/>
      <phase duration="8.18029469955" state="ry"/>
   </tlLogic>
   <tlLogic id="1220020630" offset="0" programID="0" type="static">
      <phase duration="23.0043119942" state="Gr"/>
      <phase duration="2.05230451666" state="yr"/>
      <phase duration="23.0043119942" state="rG"/>
      <phase duration="2.05230451666" state="ry"/>
   </tlLogic>
   <tlLogic id="1220020656" offset="0" programID="0" type="static">
      <phase duration="9.51129009742" state="GGrr"/>
      <phase duration="7.0" state="yyrr"/>
      <phase duration="9.51129009742" state="rrGG"/>
      <phase duration="7.0" state="rryy"/>
   </tlLogic>
   <tlLogic id="1220020673" offset="0" programID="0" type="static">
      <phase duration="18.9781416072" state="GGGrrrrrr"/>
      <phase duration="3.18222574109" state="yyyrrrrrr"/>
      <phase duration="18.9781416072" state="rrrGGGrrr"/>
      <phase duration="3.18222574109" state="rrryyyrrr"/>
      <phase duration="18.9781416072" state="rrrrrrGGG"/>
      <phase duration="3.18222574109" state="rrrrrryyy"/>
   </tlLogic>
   <tlLogic id="1220020679" offset="0" programID="0" type="static">
      <phase duration="25.4900008462" state="GGrr"/>
      <phase duration="2.90915843714" state="yyrr"/>
      <phase duration="25.4900008462" state="rrGG"/>
      <phase duration="2.90915843714" state="rryy"/>
   </tlLogic>
   <tlLogic id="1229522462" offset="0" programID="0" type="static">
      <phase duration="7.3165143898" state="G"/>
      <phase duration="9.18377523642" state="y"/>
   </tlLogic>
   <tlLogic id="1229522509" offset="0" programID="0" type="static">
      <phase duration="30.1362464931" state="G"/>
      <phase duration="6.37453645463" state="y"/>
   </tlLogic>
   <tlLogic id="1229522552" offset="0" programID="0" type="static">
      <phase duration="11.7882730752" state="G"/>
      <phase duration="8.21295188703" state="y"/>
   </tlLogic>
   <tlLogic id="1229522554" offset="0" programID="0" type="static">
      <phase duration="14.9493047042" state="G"/>
      <phase duration="4.50519904752" state="y"/>
   </tlLogic>
   <tlLogic id="1252285079" offset="0" programID="0" type="static">
      <phase duration="20.6895169174" state="Gr"/>
      <phase duration="3.4084738425" state="yr"/>
      <phase duration="20.6895169174" state="rG"/>
      <phase duration="3.4084738425" state="ry"/>
   </tlLogic>
   <tlLogic id="1252285082" offset="0" programID="0" type="static">
      <phase duration="19.0975200811" state="G"/>
      <phase duration="10.0" state="y"/>
   </tlLogic>
   <tlLogic id="1252285085" offset="0" programID="0" type="static">
      <phase duration="10.6490207624" state="Gr"/>
      <phase duration="3.94937179887" state="yr"/>
      <phase duration="10.6490207624" state="rG"/>
      <phase duration="3.94937179887" state="ry"/>
   </tlLogic>
   <tlLogic id="1252285087" offset="0" programID="0" type="static"/>
   <tlLogic id="1252285093" offset="0" programID="0" type="static">
      <phase duration="29.7916685455" state="Gr"/>
      <phase duration="4.10085893979" state="yr"/>
      <phase duration="29.7916685455" state="rG"/>
      <phase duration="4.10085893979" state="ry"/>
   </tlLogic>
   <tlLogic id="1252285107" offset="0" programID="0" type="static">
      <phase duration="12.9954669953" state="G"/>
      <phase duration="5.74512342222" state="y"/>
   </tlLogic>
   <tlLogic id="1252285137" offset="0" programID="0" type="static">
      <phase duration="14.8452591513" state="Gr"/>
      <phase duration="9.47730860005" state="yr"/>
      <phase duration="14.8452591513" state="rG"/>
      <phase duration="9.47730860005" state="ry"/>
   </tlLogic>
   <tlLogic id="1264255381" offset="0" programID="0" type="static">
      <phase duration="8.7579143518" state="GGGrrrrrr"/>
      <phase duration="7.2776427061" state="yyyrrrrrr"/>
      <phase duration="8.7579143518" state="rrrGGGrrr"/>
      <phase duration="7.2776427061" state="rrryyyrrr"/>
      <phase duration="8.7579143518" state="rrrrrrGGG"/>
      <phase duration="7.2776427061" state="rrrrrryyy"/>
   </tlLogic>
   <tlLogic id="1271504743" offset="0" programID="0" type="static">
      <phase duration="11.236480173" state="G"/>
      <phase duration="4.0" state="y"/>
   </tlLogic>
   <tlLogic id="1271504750" offset="0" programID="0" type="static">
      <phase duration="1.63362846188" state="G"/>
      <phase duration="7.94163746278" state="y"/>
   </tlLogic>
   <tlLogic id="1271504755" offset="0" programID="0" type="static">
      <phase duration="25.7579287718" state="GGrrr"/>
      <phase duration="9.85147165438" state="yyrrr"/>
      <phase duration="25.7579287718" state="rrGrr"/>
      <phase duration="9.85147165438" state="rryrr"/>
      <phase duration="25.7579287718" state="rrrGG"/>
      <phase duration="9.85147165438" state="rrryy"/>
   </tlLogic>
   <tlLogic id="1271504756" offset="0" programID="0" type="static">
      <phase duration="15.8386673867" state="Gr"/>
      <phase duration="10.0" state="yr"/>
      <phase duration="15.8386673867" state="rG"/>
      <phase duration="10.0" state="ry"/>
   </tlLogic>
   <tlLogic id="1271504757" offset="0" programID="0" type="static">
      <phase duration="26.3332859377" state="GGrrr"/>
      <phase duration="6.27238586683" state="yyrrr"/>
      <phase duration="26.3332859377" state="rrGrr"/>
      <phase duration="6.27238586683" state="rryrr"/>
      <phase duration="26.3332859377" state="rrrGG"/>
      <phase duration="6.27238586683" state="rrryy"/>
   </tlLogic>
   <tlLogic id="1271504763" offset="0" programID="0" type="static">
      <phase duration="28.4700108333" state="G"/>
      <phase duration="7.8893406423" state="y"/>
   </tlLogic>
   <tlLogic id="1271504768" offset="0" programID="0" type="static">
      <phase duration="21.3529104588" state="Gr"/>
      <phase duration="8.97426844588" state="yr"/>
      <phase duration="21.3529104588" state="rG"/>
      <phase duration="8.97426844588" state="ry"/>
   </tlLogic>
   <tlLogic id="1271504774" offset="0" programID="0" type="static">
      <phase duration="16.9864540204" state="G"/>
      <phase duration="9.55031655195" state="y"/>
   </tlLogic>
   <tlLogic id="1271504781" offset="0" programID="0" type="static">
      <phase duration="14.5535915327" state="GGrrr"/>
      <phase duration="8.48565811009" state="yyrrr"/>
      <phase duration="14.5535915327" state="rrGrr"/>
      <phase duration="8.48565811009" state="rryrr"/>
      <phase duration="14.5535915327" state="rrrGG"/>
      <phase duration="8.48565811009" state="rrryy"/>
   </tlLogic>
   <tlLogic id="1271504795" offset="0" programID="0" type="static">
      <phase duration="22.5676622677" state="G"/>
      <phase duration="5.0145919703" state="y"/>
   </tlLogic>
   <tlLogic id="1271504797" offset="0" programID="0" type="static">
      <phase duration="30.7388913585" state="Gr"/>
      <phase duration="9.22719020764" state="yr"/>
      <phase duration="30.7388913585" state="rG"/>
      <phase duration="9.22719020764" state="ry"/>
   </tlLogic>
   <tlLogic id="1271504804" offset="0" programID="0" type="static">
      <phase duration="15.0065055867" state="Gr"/>
      <phase duration="6.60267466448" state="yr"/>
      <phase duration="15.0065055867" state="rG"/>
      <phase duration="6.60267466448" state="ry"/>
   </tlLogic>
   <tlLogic id="1271504814" offset="0" programID="0" type="static">
      <phase duration="27.7342934209" state="G"/>
      <phase duration="9.59371443738" state="y"/>
   </tlLogic>
   <tlLogic id="1271504817" offset="0" programID="0" type="static">
      <phase duration="22.5060847688" state="G"/>
      <phase duration="7.60307481503" state="y"/>
   </tlLogic>
   <tlLogic id="1271504819" offset="0" programID="0" type="static">
      <phase duration="6.4441242863" state="Gr"/>
      <phase duration="4.24947308121" state="yr"/>
      <phase duration="6.4441242863" state="rG"/>
      <phase duration="4.24947308121" state="ry"/>
   </tlLogic>
   <tlLogic id="1271504822" offset="0" programID="0" type="static">
      <phase duration="20.8348046485" state="G"/>
      <phase duration="8.1353921397" state="y"/>
   </tlLogic>
   <tlLogic id="1271504824" offset="0" programID="0" type="static">
      <phase duration="12.363838584" state="G"/>
      <phase duration="6.29897260681" state="y"/>
   </tlLogic>
   <tlLogic id="1271504829" offset="0" programID="0" type="static">
      <phase duration="22.3465521313" state="Gr"/>
      <phase duration="9.81103484435" state="yr"/>
      <phase duration="22.3465521313" state="rG"/>
      <phase duration="9.81103484435" state="ry"/>
   </tlLogic>
   <tlLogic id="1271504830" offset="0" programID="0" type="static">
      <phase duration="37.4164056016" state="GGrrr"/>
      <phase duration="10.0" state="yyrrr"/>
      <phase duration="37.4164056016" state="rrGrr"/>
      <phase duration="10.0" state="rryrr"/>
      <phase duration="37.4164056016" state="rrrGG"/>
      <phase duration="10.0" state="rrryy"/>
   </tlLogic>
   <tlLogic id="1271504832" offset="0" programID="0" type="static">
      <phase duration="24.4919555319" state="Gr"/>
      <phase duration="10.0" state="yr"/>
      <phase duration="24.4919555319" state="rG"/>
      <phase duration="10.0" state="ry"/>
   </tlLogic>
   <tlLogic id="1271504836" offset="0" programID="0" type="static">
      <phase duration="24.4552422352" state="G"/>
      <phase duration="9.3552246056" state="y"/>
   </tlLogic>
   <tlLogic id="1271504838" offset="0" programID="0" type="static">
      <phase duration="15.8331866919" state="GGrrr"/>
      <phase duration="7.93695479497" state="yyrrr"/>
      <phase duration="15.8331866919" state="rrGGr"/>
      <phase duration="7.93695479497" state="rryyr"/>
      <phase duration="15.8331866919" state="rrrrG"/>
      <phase duration="7.93695479497" state="rrrry"/>
   </tlLogic>
   <tlLogic id="1271504841" offset="0" programID="0" type="static">
      <phase duration="17.0163888536" state="G"/>
      <phase duration="8.45936351197" state="y"/>
   </tlLogic>
   <tlLogic id="1271504844" offset="0" programID="0" type="static">
      <phase duration="15.1386446666" state="G"/>
      <phase duration="3.93647617229" state="y"/>
   </tlLogic>
   <tlLogic id="1271504845" offset="0" programID="0" type="static">
      <phase duration="2.0" state="G"/>
      <phase duration="7.82288311304" state="y"/>
   </tlLogic>
   <tlLogic id="1271504850" offset="0" programID="0" type="static">
      <phase duration="16.0651850948" state="Gr"/>
      <phase duration="9.09439110882" state="yr"/>
      <phase duration="16.0651850948" state="rG"/>
      <phase duration="9.09439110882" state="ry"/>
   </tlLogic>
   <tlLogic id="1271504851" offset="0" programID="0" type="static">
      <phase duration="34.7823284664" state="G"/>
      <phase duration="3.7798572596" state="y"/>
   </tlLogic>
   <tlLogic id="1271504852" offset="0" programID="0" type="static">
      <phase duration="15.4322054628" state="G"/>
      <phase duration="8.03725676144" state="y"/>
   </tlLogic>
   <tlLogic id="1271504858" offset="0" programID="0" type="static">
      <phase duration="27.5125996548" state="G"/>
      <phase duration="9.03813616604" state="y"/>
   </tlLogic>
   <tlLogic id="1271504861" offset="0" programID="0" type="static">
      <phase duration="29.7427175425" state="G"/>
      <phase duration="10.0" state="y"/>
   </tlLogic>
   <tlLogic id="1271504863" offset="0" programID="0" type="static">
      <phase duration="13.6440135057" state="G"/>
      <phase duration="4.44074294594" state="y"/>
   </tlLogic>
   <tlLogic id="1271504871" offset="0" programID="0" type="static">
      <phase duration="25.7637262713" state="GGrr"/>
      <phase duration="7.42332677724" state="yyrr"/>
      <phase duration="25.7637262713" state="rrGG"/>
      <phase duration="7.42332677724" state="rryy"/>
   </tlLogic>
   <tlLogic id="1271504872" offset="0" programID="0" type="static">
      <phase duration="24.2448708382" state="G"/>
      <phase duration="5.32037541991" state="y"/>
   </tlLogic>
   <tlLogic id="1271504873" offset="0" programID="0" type="static">
      <phase duration="36.436042537" state="GGrrr"/>
      <phase duration="10.0" state="yyrrr"/>
      <phase duration="36.436042537" state="rrGrr"/>
      <phase duration="10.0" state="rryrr"/>
      <phase duration="36.436042537" state="rrrGG"/>
      <phase duration="10.0" state="rrryy"/>
   </tlLogic>
   <tlLogic id="1271504874" offset="0" programID="0" type="static">
      <phase duration="16.0827985953" state="G"/>
      <phase duration="1.61945106609" state="y"/>
   </tlLogic>
   <tlLogic id="1271504875" offset="0" programID="0" type="static">
      <phase duration="29.6041515265" state="G"/>
      <phase duration="10.0" state="y"/>
   </tlLogic>
   <tlLogic id="1271504878" offset="0" programID="0" type="static">
      <phase duration="20.6948527188" state="G"/>
      <phase duration="8.3032192068" state="y"/>
   </tlLogic>
   <tlLogic id="1271504881" offset="0" programID="0" type="static">
      <phase duration="22.6830842955" state="GGrrr"/>
      <phase duration="10.0" state="yyrrr"/>
      <phase duration="22.6830842955" state="rrGrr"/>
      <phase duration="10.0" state="rryrr"/>
      <phase duration="22.6830842955" state="rrrGG"/>
      <phase duration="10.0" state="rrryy"/>
   </tlLogic>
   <tlLogic id="1271504883" offset="0" programID="0" type="static">
      <phase duration="33.9730481007" state="GGrrr"/>
      <phase duration="8.32416514373" state="yyrrr"/>
      <phase duration="33.9730481007" state="rrGrr"/>
      <phase duration="8.32416514373" state="rryrr"/>
      <phase duration="33.9730481007" state="rrrGG"/>
      <phase duration="8.32416514373" state="rrryy"/>
   </tlLogic>
   <tlLogic id="1271504888" offset="0" programID="0" type="static">
      <phase duration="11.3816726144" state="G"/>
      <phase duration="5.0" state="y"/>
   </tlLogic>
   <tlLogic id="1271504889" offset="0" programID="0" type="static">
      <phase duration="22.2397375896" state="Gr"/>
      <phase duration="9.80233975819" state="yr"/>
      <phase duration="22.2397375896" state="rG"/>
      <phase duration="9.80233975819" state="ry"/>
   </tlLogic>
   <tlLogic id="1271504893" offset="0" programID="0" type="static">
      <phase duration="27.3435251492" state="GGrrr"/>
      <phase duration="10.0" state="yyrrr"/>
      <phase duration="27.3435251492" state="rrGrr"/>
      <phase duration="10.0" state="rryrr"/>
      <phase duration="27.3435251492" state="rrrGG"/>
      <phase duration="10.0" state="rrryy"/>
   </tlLogic>
   <tlLogic id="1271504894" offset="0" programID="0" type="static">
      <phase duration="7.64533013886" state="G"/>
      <phase duration="7.67289353451" state="y"/>
   </tlLogic>
   <tlLogic id="1271504898" offset="0" programID="0" type="static">
      <phase duration="19.0764335715" state="Gr"/>
      <phase duration="9.62502623018" state="yr"/>
      <phase duration="19.0764335715" state="rG"/>
      <phase duration="9.62502623018" state="ry"/>
   </tlLogic>
   <tlLogic id="1271504899" offset="0" programID="0" type="static">
      <phase duration="20.1620880397" state="G"/>
      <phase duration="5.25305365607" state="y"/>
   </tlLogic>
   <tlLogic id="1271504901" offset="0" programID="0" type="static">
      <phase duration="27.4909427979" state="GGrrr"/>
      <phase duration="9.19615803924" state="yyrrr"/>
      <phase duration="27.4909427979" state="rrGrr"/>
      <phase duration="9.19615803924" state="rryrr"/>
      <phase duration="27.4909427979" state="rrrGG"/>
      <phase duration="9.19615803924" state="rrryy"/>
   </tlLogic>
   <tlLogic id="1271504902" offset="0" programID="0" type="static">
      <phase duration="19.4629650925" state="Gr"/>
      <phase duration="4.88757573352" state="yr"/>
      <phase duration="19.4629650925" state="rG"/>
      <phase duration="4.88757573352" state="ry"/>
   </tlLogic>
   <tlLogic id="1271504904" offset="0" programID="0" type="static">
      <phase duration="28.3324057871" state="Grr"/>
      <phase duration="5.53732705961" state="yrr"/>
      <phase duration="28.3324057871" state="rGG"/>
      <phase duration="5.53732705961" state="ryy"/>
   </tlLogic>
   <tlLogic id="1271504907" offset="0" programID="0" type="static">
      <phase duration="36.4876717557" state="G"/>
      <phase duration="8.02711829648" state="y"/>
   </tlLogic>
   <tlLogic id="1271504911" offset="0" programID="0" type="static">
      <phase duration="6.10153660075" state="G"/>
      <phase duration="4.30895682915" state="y"/>
   </tlLogic>
   <tlLogic id="1271504913" offset="0" programID="0" type="static">
      <phase duration="31.1854377505" state="GGrrr"/>
      <phase duration="7.76285015844" state="yyrrr"/>
      <phase duration="31.1854377505" state="rrGGr"/>
      <phase duration="7.76285015844" state="rryyr"/>
      <phase duration="31.1854377505" state="rrrrG"/>
      <phase duration="7.76285015844" state="rrrry"/>
   </tlLogic>
   <tlLogic id="1271504914" offset="0" programID="0" type="static">
      <phase duration="22.809795564" state="G"/>
      <phase duration="7.59952509412" state="y"/>
   </tlLogic>
   <tlLogic id="1271504918" offset="0" programID="0" type="static">
      <phase duration="31.250322395" state="G"/>
      <phase duration="5.59848619851" state="y"/>
   </tlLogic>
   <tlLogic id="1299369678" offset="0" programID="0" type="static">
      <phase duration="18.9809749946" state="G"/>
      <phase duration="9.10453806054" state="y"/>
   </tlLogic>
   <tlLogic id="1299369684" offset="0" programID="0" type="static">
      <phase duration="25.5596343574" state="G"/>
      <phase duration="7.30268163107" state="y"/>
   </tlLogic>
   <tlLogic id="1299369686" offset="0" programID="0" type="static">
      <phase duration="31.571504921" state="G"/>
      <phase duration="9.54890670682" state="y"/>
   </tlLogic>
   <tlLogic id="1299369689" offset="0" programID="0" type="static">
      <phase duration="18.8973461488" state="GGrrr"/>
      <phase duration="6.87092949081" state="yyrrr"/>
      <phase duration="18.8973461488" state="rrGrr"/>
      <phase duration="6.87092949081" state="rryrr"/>
      <phase duration="18.8973461488" state="rrrGG"/>
      <phase duration="6.87092949081" state="rrryy"/>
   </tlLogic>
   <tlLogic id="1299369697" offset="0" programID="0" type="static">
      <phase duration="22.7470669447" state="G"/>
      <phase duration="8.7149752157" state="y"/>
   </tlLogic>
   <tlLogic id="1299369701" offset="0" programID="0" type="static">
      <phase duration="31.457248212" state="GGrrr"/>
      <phase duration="5.0" state="yyrrr"/>
      <phase duration="31.457248212" state="rrGrr"/>
      <phase duration="5.0" state="rryrr"/>
      <phase duration="31.457248212" state="rrrGG"/>
      <phase duration="5.0" state="rrryy"/>
   </tlLogic>
   <tlLogic id="1312440651" offset="0" programID="0" type="static">
      <phase duration="15.915339594" state="G"/>
      <phase duration="4.33140554524" state="y"/>
   </tlLogic>
   <tlLogic id="1312440715" offset="0" programID="0" type="static">
      <phase duration="14.7902805417" state="Gr"/>
      <phase duration="3.63623281477" state="yr"/>
      <phase duration="14.7902805417" state="rG"/>
      <phase duration="3.63623281477" state="ry"/>
   </tlLogic>
   <tlLogic id="1353566371" offset="0" programID="0" type="static">
      <phase duration="22.8855156517" state="G"/>
      <phase duration="5.98940536211" state="y"/>
   </tlLogic>
   <tlLogic id="1360932319" offset="0" programID="0" type="static"/>
   <tlLogic id="1366801174" offset="0" programID="0" type="static">
      <phase duration="26.9788583327" state="G"/>
      <phase duration="8.9514402544" state="y"/>
   </tlLogic>
   <tlLogic id="1366801185" offset="0" programID="0" type="static">
      <phase duration="35.2882166721" state="G"/>
      <phase duration="9.85068429986" state="y"/>
   </tlLogic>
   <tlLogic id="1366801190" offset="0" programID="0" type="static"/>
   <tlLogic id="1366801194" offset="0" programID="0" type="static"/>
   <tlLogic id="1366801217" offset="0" programID="0" type="static">
      <phase duration="33.953227692" state="G"/>
      <phase duration="9.54129619354" state="y"/>
   </tlLogic>
   <tlLogic id="1492679675" offset="0" programID="0" type="static">
      <phase duration="8.87878436136" state="Gr"/>
      <phase duration="6.47084399455" state="yr"/>
      <phase duration="8.87878436136" state="rG"/>
      <phase duration="6.47084399455" state="ry"/>
   </tlLogic>
   <tlLogic id="1492679681" offset="0" programID="0" type="static">
      <phase duration="21.591088667" state="G"/>
      <phase duration="7.19930966883" state="y"/>
   </tlLogic>
   <tlLogic id="1492679714" offset="0" programID="0" type="static">
      <phase duration="21.2570161703" state="Gr"/>
      <phase duration="7.06686424594" state="yr"/>
      <phase duration="21.2570161703" state="rG"/>
      <phase duration="7.06686424594" state="ry"/>
   </tlLogic>
   <tlLogic id="1492679729" offset="0" programID="0" type="static">
      <phase duration="18.0" state="G"/>
      <phase duration="6.80475006018" state="y"/>
   </tlLogic>
   <tlLogic id="1492679738" offset="0" programID="0" type="static">