<?xml version="1.0" ?>
<nodes version="0.27" xmlns:xsi="http://www.w3.org/2001/XMLSchema-instance" xsi:noNamespaceSchemaLocation="http://sumo.dlr.de/xsd/nodes_file.xsd">
   
   
    
   
   <location convBoundary="0.00,0.00,1440.65,4005.89" netOffset="-663088.49,-5102615.60" origBoundary="11.109789,46.057512,11.127587,46.093694" projParameter="+proj=utm +zone=32 +ellps=WGS84 +datum=WGS84 +units=m +no_defs"/>
   
   

    
   
   <node id="1000099468" type="traffic_light" x="1051.73" y="1514.28"/>
   
   
    
   
   <node id="1000099475" type="priority" x="935.14" y="1787.63"/>
   
   
    
   
   <node id="1000099490" type="priority" x="1191.86" y="1648.86"/>
   
   
    
   
   <node id="1000099503" type="traffic_light" x="1017.76" y="1740.28"/>
   
   
    
   
   <node id="1000099520" type="priority" x="997.33" y="1451.08"/>
   
   
    
   
   <node id="1000099544" type="priority" x="991.17" y="1472.79"/>
   
   
    
   
   <node id="1000099551" type="priority" x="991.85" y="1470.51"/>
   
   
    
   
   <node id="1000099553" type="traffic_light" x="970.29" y="1628.56"/>
   
   
    
   
   <node id="1000099576" type="traffic_light" x="942.64" y="1789.91"/>
   
   
    
   
   <node id="1000099591" type="traffic_light" x="1026.98" y="1746.31"/>
   
   
    
   
   <node id="1000099607" type="traffic_light" x="1015.39" y="1734.74"/>
   
   
    
   
   <node id="1000099650" type="priority" x="824.12" y="1452.35"/>
   
   
    
   
   <node id="1000099651" type="priority" x="1021.38" y="1748.68"/>
   
   
    
   
   <node id="1000099724" type="priority" x="1029.28" y="1735.25"/>
   
   
    
   
   <node id="1000099741" type="priority" x="1198.29" y="1576.35"/>
   
   
    
   
   <node id="1000099788" type="priority" x="998.29" y="1447.51"/>
   
   
    
   
   <node id="1012321567" type="traffic_light" x="845.70" y="1608.90"/>
   
   
    
   
   <node id="1012321573" type="priority" x="841.58" y="1600.17"/>
   
   
    
   
   <node id="1012321580" type="priority" x="848.74" y="1615.35"/>
   
   
    
   
   <node id="1012326820" type="traffic_light" x="797.25" y="1450.93"/>
   
   
    
   
   <node id="1028832186" type="priority" x="1336.07" y="1612.22"/>
   
   
    
   
   <node id="1028832536" type="traffic_light" x="1351.28" y="1576.52"/>
   
   
    
   
   <node id="1037290808" type="priority" x="1015.78" y="1420.88"/>
   
   
    
   
   <node id="1037290822" type="priority" x="998.88" y="1365.06"/>
   
   
    
   
   <node id="1037290863" type="priority" x="997.93" y="1369.72"/>
   
   
    
   
   <node id="1037290889" type="traffic_light" x="1023.39" y="1400.22"/>
   
   
    
   
   <node id="1037290915" type="traffic_light" x="1012.60" y="1441.67"/>
   
   
    
   
   <node id="1037290944" type="priority" x="1002.56" y="1349.08"/>
   
   
    
   
   <node id="1040964328" type="priority" x="938.79" y="1581.20"/>
   
   
    
   
   <node id="1040964333" type="traffic_light" x="916.37" y="1611.22"/>
   
   
    
   
   <node id="1045044692" type="priority" x="967.06" y="1431.12"/>
   
   
    
   
   <node id="1045044715" type="priority" x="907.79" y="1639.93"/>
   
   
    
   
   <node id="1045044750" type="traffic_light" x="859.32" y="1415.39"/>
   
   
    
   
   <node id="1045044796" type="traffic_light" x="853.26" y="1624.95"/>
   
   
    
   
   <node id="1045044803" type="priority" x="940.98" y="1626.51"/>
   
   
    
   
   <node id="1045044863" type="priority" x="951.71" y="1612.50"/>
   
   
    
   
   <node id="1062771951" type="priority" x="1302.79" y="1628.94"/>
   
   
    
   
   <node id="1062771990" type="priority" x="1267.61" y="1655.37"/>
   
   
    
   
   <node id="1109589944" type="priority" x="978.60" y="1474.97"/>
   
   
    
   
   <node id="1109589987" type="traffic_light" x="962.04" y="1498.13"/>
   
   
    
   
   <node id="1123630986" type="traffic_light" x="825.64" y="1601.79"/>
   
   
    
   
   <node id="1125127500" type="traffic_light" x="868.96" y="1233.60"/>
   
   
    
   
   <node id="1149210260" type="traffic_light" x="895.89" y="1817.30"/>
   
   
    
   
   <node id="1150667539" type="priority" x="821.95" y="1723.93"/>
   
   
    
   
   <node id="1150667540" type="priority" x="847.52" y="1769.07"/>
   
   
    
   
   <node id="1150667546" type="traffic_light" x="873.08" y="1670.66"/>
   
   
    
   
   <node id="1150667552" type="priority" x="870.17" y="1691.75"/>
   
   
    
   
   <node id="1150667555" type="traffic_light" x="932.23" y="1795.49"/>
   
   
    
   
   <node id="1150667558" type="priority" x="862.14" y="1801.49"/>
   
   
    
   
   <node id="1150667560" type="priority" x="858.98" y="1794.37"/>
   
   
    
   
   <node id="1150667568" type="traffic_light" x="900.69" y="1843.67"/>
   
   
    
   
   <node id="1150667571" type="priority" x="835.60" y="1733.48"/>
   
   
    
   
   <node id="1150667586" type="traffic_light" x="886.69" y="1850.08"/>
   
   
    
   
   <node id="1150667603" type="traffic_light" x="892.67" y="1822.42"/>
   
   
    
   
   <node id="1150667604" type="traffic_light" x="882.63" y="1800.62"/>
   
   
    
   
   <node id="1150667608" type="traffic_light" x="866.19" y="1810.26"/>
   
   
    
   
   <node id="1150667618" type="traffic_light" x="757.11" y="1566.24"/>
   
   
    
   
   <node id="1150667622" type="priority" x="833.33" y="1739.11"/>
   
   
    
   
   <node id="1156723779" type="priority" x="868.57" y="1656.39"/>
   
   
    
   
   <node id="1156723834" type="traffic_light" x="868.38" y="1661.78"/>
   
   
    
   
   <node id="1156723839" type="traffic_light" x="868.61" y="1652.62"/>
   
   
    
   
   <node id="1157698150" type="priority" x="1132.09" y="1423.67"/>
   
   
    
   
   <node id="1200892937" type="priority" x="1218.89" y="1311.31"/>
   
   
    
   
   <node id="1200892960" type="priority" x="1232.74" y="1312.16"/>
   
   
    
   
   <node id="1201745377" type="priority" x="1440.65" y="1598.26"/>
   
   
    
   
   <node id="1201745399" type="priority" x="1196.61" y="1314.28"/>
   
   
    
   
   <node id="1201745409" type="priority" x="1200.74" y="1333.82"/>
   
   
    
   
   <node id="1211136497" type="priority" x="775.93" y="1342.41"/>
   
   
    
   
   <node id="1211136595" type="priority" x="779.14" y="1323.07"/>
   
   
    
   
   <node id="1211136870" type="priority" x="776.83" y="1336.97"/>
   
   
    
   
   <node id="1220020505" type="priority" x="1188.89" y="1481.68"/>
   
   
    
   
   <node id="1220020545" type="traffic_light" x="1196.06" y="1502.41"/>
   
   
    
   
   <node id="1220020588" type="priority" x="996.87" y="1677.26"/>
   
   
    
   
   <node id="1220020592" type="traffic_light" x="1164.39" y="1498.25"/>
   
   
    
   
   <node id="1220020607" type="priority" x="1044.29" y="1654.06"/>
   
   
    
   
   <node id="1220020630" type="priority" x="1197.97" y="1483.14"/>
   
   
    
   
   <node id="1220020656" type="traffic_light" x="1015.39" y="1669.22"/>
   
   
    
   
   <node id="1220020673" type="priority" x="1187.38" y="1502.04"/>
   
   
    
   
   <node id="1220020679" type="priority" x="1167.38" y="1498.76"/>
   
   
    
   
   <node id="1229522462" type="priority" x="916.90" y="1391.23"/>
   
   
    
   
   <node id="1229522502" type="priority" x="907.07" y="1388.82"/>
   
   
    
   
   <node id="1229522509" type="traffic_light" x="910.79" y="1405.80"/>
   
   
    
   
   <node id="1229522552" type="traffic_light" x="903.86" y="1404.53"/>
   
   
    
   
   <node id="1229522554" type="traffic_light" x="916.87" y="1406.81"/>
   
   
    
   
   <node id="1252265070" type="priority" x="1414.31" y="1296.95"/>
   
   
    
   
   <node id="1252285079" type="traffic_light" x="1305.72" y="1547.63"/>
   
   
    
   
   <node id="1252285082" type="traffic_light" x="1331.26" y="1448.55"/>
   
   
    
   
   <node id="1252285085" type="priority" x="1327.44" y="1454.09"/>
   
   
    
   
   <node id="1252285087" type="traffic_light" x="1431.29" y="1410.37"/>
   
   
    
   
   <node id="1252285092" type="priority" x="1327.84" y="1558.00"/>
   
   
    
   
   <node id="1252285093" type="traffic_light" x="1312.16" y="1550.65"/>
   
   
    
   
   <node id="1252285105" type="priority" x="1325.66" y="1582.46"/>
   
   
    
   
   <node id="1252285107" type="traffic_light" x="1323.65" y="1585.90"/>
   
   
    
   
   <node id="1252285133" type="priority" x="1335.06" y="1590.89"/>
   
   
    
   
   <node id="1252285137" type="traffic_light" x="1291.71" y="1609.49"/>
   
   
    
   
   <node id="1252285138" type="traffic_light" x="1420.05" y="1405.13"/>
   
   
    
   
   <node id="1252285140" type="priority" x="1321.21" y="1554.90"/>
   
   
    
   
   <node id="1258258237" type="priority" x="734.19" y="1347.31"/>
   
   
    
   
   <node id="1264255381" type="traffic_light" x="997.52" y="1693.66"/>
   
   
    
   
   <node id="1271504738" type="traffic_light" x="802.27" y="1390.41"/>
   
   
    
   
   <node id="1271504743" type="traffic_light" x="716.91" y="1382.76"/>
   
   
    
   
   <node id="1271504747" type="priority" x="1128.19" y="1506.29"/>
   
   
    
   
   <node id="1271504748" type="priority" x="979.63" y="1418.70"/>
   
   
    
   
   <node id="1271504750" type="priority" x="1258.69" y="1653.42"/>
   
   
    
   
   <node id="1271504755" type="priority" x="1033.17" y="1456.24"/>
   
   
    
   
   <node id="1271504756" type="priority" x="1286.23" y="1427.41"/>
   
   
    
   
   <node id="1271504757" type="priority" x="967.94" y="1498.44"/>
   
   
    
   
   <node id="1271504758" type="priority" x="968.08" y="1500.39"/>
   
   
    
   
   <node id="1271504762" type="priority" x="1303.34" y="1610.45"/>
   
   
    
   
   <node id="1271504763" type="priority" x="1145.53" y="1536.15"/>
   
   
    
   
   <node id="1271504764" type="priority" x="1024.85" y="1452.81"/>
   
   
    
   
   <node id="1271504766" type="traffic_light" x="969.89" y="1440.11"/>
   
   
    
   
   <node id="1271504767" type="traffic_light" x="1329.31" y="1454.79"/>
   
   
    
   
   <node id="1271504768" type="traffic_light" x="1155.72" y="1523.90"/>
   
   
    
   
   <node id="1271504770" type="priority" x="821.79" y="1408.46"/>
   
   
    
   
   <node id="1271504773" type="traffic_light" x="808.93" y="1554.33"/>
   
   
    
   
   <node id="1271504774" type="priority" x="989.82" y="1428.99"/>
   
   
    
   
   <node id="1271504775" type="traffic_light" x="836.56" y="1393.51"/>
   
   
    
   
   <node id="1271504778" type="traffic_light" x="1015.56" y="1438.42"/>
   
   
    
   
   <node id="1271504781" type="priority" x="1103.72" y="1500.68"/>
   
   
    
   
   <node id="1271504783" type="traffic_light" x="849.03" y="1421.05"/>
   
   
    
   
   <node id="1271504788" type="traffic_light" x="1065.66" y="1470.53"/>
   
   
    
   
   <node id="1271504795" type="priority" x="1035.22" y="1457.53"/>
   
   
    
   
   <node id="1271504797" type="traffic_light" x="1198.23" y="1565.43"/>
   
   
    
   
   <node id="1271504801" type="traffic_light" x="1159.33" y="1526.22"/>
   
   
    
   
   <node id="1271504803" type="priority" x="1101.23" y="1498.58"/>
   
   
    
   
   <node id="1271504804" type="priority" x="844.03" y="1669.44"/>
   
   
    
   
   <node id="1271504812" type="traffic_light" x="811.81" y="1501.27"/>
   
   
    
   
   <node id="1271504813" type="traffic_light" x="1106.50" y="1503.28"/>
   
   
    
   
   <node id="1271504814" type="traffic_light" x="1075.80" y="1572.52"/>
   
   
    
   
   <node id="1271504815" type="priority" x="862.10" y="1401.32"/>
   
   
    
   
   <node id="1271504816" type="priority" x="1069.63" y="1467.88"/>
   
   
    
   
   <node id="1271504817" type="traffic_light" x="1234.90" y="1670.96"/>
   
   
    
   
   <node id="1271504819" type="priority" x="1284.60" y="1431.37"/>
   
   
    
   
   <node id="1271504822" type="priority" x="813.13" y="1585.89"/>
   
   
    
   
   <node id="1271504823" type="priority" x="1304.32" y="1637.43"/>
   
   
    
   
   <node id="1271504824" type="traffic_light" x="1125.95" y="1504.80"/>
   
   
    
   
   <node id="1271504827" type="priority" x="975.88" y="1417.83"/>
   
   
    
   
   <node id="1271504828" type="traffic_light" x="973.47" y="1473.63"/>
   
   
    
   
   <node id="1271504829" type="priority" x="840.62" y="1654.90"/>
   
   
    
   
   <node id="1271504830" type="traffic_light" x="808.39" y="1559.67"/>
   
   
    
   
   <node id="1271504831" type="traffic_light" x="964.11" y="1524.11"/>
   
   
    
   
   <node id="1271504832" type="priority" x="1088.80" y="1480.10"/>
   
   
    
   
   <node id="1271504834" type="priority" x="825.31" y="1420.81"/>
   
   
    
   
   <node id="1271504836" type="priority" x="1152.55" y="1521.87"/>
   
   
    
   
   <node id="1271504838" type="traffic_light" x="1067.80" y="1466.71"/>
   
   
    
   
   <node id="1271504841" type="priority" x="826.49" y="1444.69"/>
   
   
    
   
   <node id="1271504842" type="priority" x="824.22" y="1394.87"/>
   
   
    
   
   <node id="1271504843" type="priority" x="1273.51" y="1226.85"/>
   
   
    
   
   <node id="1271504844" type="traffic_light" x="1081.08" y="1570.27"/>
   
   
    
   
   <node id="1271504845" type="traffic_light" x="831.12" y="1490.87"/>
   
   
    
   
   <node id="1271504849" type="priority" x="974.89" y="1468.88"/>
   
   
    
   
   <node id="1271504850" type="priority" x="1273.86" y="1426.57"/>
   
   
    
   
   <node id="1271504851" type="traffic_light" x="936.39" y="1769.15"/>
   
   
    
   
   <node id="1271504852" type="priority" x="1194.83" y="1558.83"/>
   
   
    
   
   <node id="1271504855" type="priority" x="1034.81" y="1446.43"/>
   
   
    
   
   <node id="1271504858" type="priority" x="841.07" y="1648.92"/>
   
   
    
   
   <node id="1271504861" type="traffic_light" x="973.40" y="1617.55"/>
   
   
    
   
   <node id="1271504863" type="priority" x="1130.08" y="1507.54"/>
   
   
    
   
   <node id="1271504864" type="priority" x="808.51" y="1562.17"/>
   
   
    
   
   <node id="1271504866" type="traffic_light" x="1065.86" y="1465.47"/>
   
   
    
   
   <node id="1271504867" type="traffic_light" x="967.90" y="1495.51"/>
   
   
    
   
   <node id="1271504868" type="traffic_light" x="942.23" y="1782.07"/>
   
   
    
   
   <node id="1271504870" type="priority" x="756.24" y="1381.03"/>
   
   
    
   
   <node id="1271504871" type="traffic_light" x="1079.07" y="1443.33"/>
   
   
    
   
   <node id="1271504872" type="traffic_light" x="972.87" y="1475.62"/>
   
   
    
   
   <node id="1271504873" type="priority" x="1078.91" y="1571.14"/>
   
   
    
   
   <node id="1271504874" type="traffic_light" x="1324.65" y="1452.83"/>
   
   
    
   
   <node id="1271504875" type="priority" x="969.09" y="1420.69"/>
   
   
    
   
   <node id="1271504876" type="priority" x="820.77" y="1431.60"/>
   
   
    
   
   <node id="1271504878" type="priority" x="982.34" y="1444.42"/>
   
   
    
   
   <node id="1271504881" type="traffic_light" x="1026.96" y="1453.50"/>
   
   
    
   
   <node id="1271504883" type="priority" x="873.59" y="1699.42"/>
   
   
    
   
   <node id="1271504884" type="priority" x="815.49" y="1458.71"/>
   
   
    
   
   <node id="1271504887" type="priority" x="809.19" y="1551.69"/>
   
   
    
   
   <node id="1271504888" type="traffic_light" x="959.13" y="1571.41"/>
   
   
    
   
   <node id="1271504889" type="traffic_light" x="1250.24" y="1625.68"/>
   
   
    
   
   <node id="1271504891" type="traffic_light" x="1247.55" y="1646.77"/>
   
   
    
   
   <node id="1271504893" type="priority" x="963.63" y="1526.14"/>
   
   
    
   
   <node id="1271504894" type="priority" x="975.53" y="1466.75"/>
   
   
    
   
   <node id="1271504895" type="priority" x="1306.59" y="1636.62"/>
   
   
    
   
   <node id="1271504898" type="priority" x="986.97" y="1440.27"/>
   
   
    
   
   <node id="1271504899" type="traffic_light" x="983.38" y="1419.57"/>
   
   
    
   
   <node id="1271504901" type="traffic_light" x="1013.23" y="1437.55"/>
   
   
    
   
   <node id="1271504902" type="priority" x="826.75" y="1616.61"/>
   
   
    
   
   <node id="1271504904" type="priority" x="1234.18" y="1743.06"/>
   
   
    
   
   <node id="1271504905" type="priority" x="1313.35" y="1502.23"/>
   
   
    
   
   <node id="1271504907" type="traffic_light" x="1200.65" y="1570.13"/>
   
   
    
   
   <node id="1271504908" type="traffic_light" x="963.19" y="1527.94"/>
   
   
    
   
   <node id="1271504910" type="traffic_light" x="1253.77" y="1653.94"/>
   
   
    
   
   <node id="1271504911" type="traffic_light" x="813.20" y="1510.12"/>
   
   
    
   
   <node id="1271504913" type="traffic_light" x="1313.86" y="1632.85"/>
   
   
    
   
   <node id="1271504914" type="traffic_light" x="1011.31" y="1436.77"/>
   
   
    
   
   <node id="1271504918" type="traffic_light" x="809.09" y="1573.04"/>
   
   
    
   
   <node id="1298727142" type="traffic_light" x="977.63" y="1619.82"/>
   
   
    
   
   <node id="1299369677" type="priority" x="863.33" y="1705.51"/>
   
   
    
   
   <node id="1299369678" type="traffic_light" x="834.62" y="1634.38"/>
   
   
    
   
   <node id="1299369679" type="priority" x="866.44" y="1711.27"/>
   
   
    
   
   <node id="1299369684" type="traffic_light" x="818.68" y="1598.42"/>
   
   
    
   
   <node id="1299369686" type="traffic_light" x="900.83" y="1786.33"/>
   
   
    
   
   <node id="1299369689" type="traffic_light" x="902.73" y="1790.80"/>
   
   
    
   
   <node id="1299369691" type="priority" x="857.01" y="1697.03"/>
   
   
    
   
   <node id="1299369694" type="traffic_light" x="854.84" y="1697.99"/>
   
   
    
   
   <node id="1299369697" type="priority" x="903.84" y="1793.40"/>
   
   
    
   
   <node id="1299369699" type="priority" x="907.38" y="1801.70"/>
   
   
    
   
   <node id="1299369701" type="priority" x="864.99" y="1708.57"/>
   
   
    
   
   <node id="1312440651" type="priority" x="696.13" y="1401.82"/>
   
   
    
   
   <node id="1312440659" type="priority" x="814.86" y="1455.14"/>
   
   
    
   
   <node id="1312440715" type="priority" x="697.05" y="1391.96"/>
   
   
    
   
   <node id="1312812204" type="priority" x="843.87" y="1394.50"/>
   
   
    
   
   <node id="1353566368" type="priority" x="1238.48" y="1355.08"/>
   
   
    
   
   <node id="1353566371" type="traffic_light" x="1226.15" y="1354.94"/>
   
   
    
   
   <node id="1360932319" type="traffic_light" x="1269.53" y="1224.45"/>
   
   
    
   
   <node id="1366801174" type="priority" x="1335.52" y="1275.33"/>
   
   
    
   
   <node id="1366801185" type="priority" x="1323.77" y="1292.96"/>
   
   
    
   
   <node id="1366801190" type="priority" x="1409.21" y="1298.18"/>
   
   
    
   
   <node id="1366801191" type="priority" x="1316.08" y="1296.77"/>
   
   
    
   
   <node id="1366801194" type="traffic_light" x="1315.27" y="1298.90"/>
   
   
    
   
   <node id="1366801200" type="priority" x="1335.34" y="1318.57"/>
   
   
    
   
   <node id="1366801204" type="priority" x="1426.49" y="1335.73"/>
   
   
    
   
   <node id="1366801217" type="priority" x="1271.50" y="1368.34"/>
   
   
    
   
   <node id="1366801221" type="traffic_light" x="1289.16" y="1372.42"/>
   
   
    
   
   <node id="1366801262" type="priority" x="1294.44" y="1478.77"/>
   
   
    
   
   <node id="1366801267" type="priority" x="1318.01" y="1498.41"/>
   
   
    
   
   <node id="1492679675" type="traffic_light" x="1159.85" y="1546.13"/>
   
   
    
   
   <node id="1492679678" type="priority" x="1139.63" y="1555.17"/>
   
   
    
   
   <node id="1492679681" type="traffic_light" x="1184.22" y="1577.72"/>
   
   
    
   
   <node id="1492679687" type="priority" x="1187.48" y="1582.52"/>
   
   
    
   
   <node id="1492679688" type="priority" x="1094.91" y="1579.18"/>
   
   
    
   
   <node id="1492679696" type="priority" x="1086.49" y="1583.16"/>
   
   
    
   
   <node id="1492679714" type="priority" x="1196.35" y="1596.25"/>
   
   
    
   
   <node id="1492679718" type="traffic_light" x="1198.79" y="1601.59"/>
   
   
    
   
   <node id="1492679723" type="traffic_light" x="1023.19" y="1606.43"/>
   
   
    
   
   <node id="1492679726" type="priority" x="976.24" y="1616.30"/>
   
   
    
   
   <node id="1492679729" type="traffic_light" x="1224.46" y="1631.28"/>
   
   
    
   
   <node id="1492679731" type="traffic_light" x="979.58" y="1624.79"/>
   
   
    
   
   <node id="1492679733" type="priority" x="1214.15" y="1635.61"/>
   
   
    
   
   <node id="1492679738" type="priority" x="1171.79" y="1665.23"/>
   
   
    
   
   <node id="1492679739" type="priority" x="1156.06" y="1673.54"/>
   
   
    
   
   <node id="1492679740" type="priority" x="1147.34" y="1674.51"/>
   
   
    
   
   <node id="1492679741" type="traffic_light" x="999.53" y="1672.99"/>
   
   
    
   
   <node id="1492679747" type="priority" x="1139.29" y="1678.16"/>
   
   
    
   
   <node id="1492679749" type="traffic_light" x="1000.63" y="1675.63"/>
   
   
    
   
   <node id="1492679753" type="traffic_light" x="1001.75" y="1678.35"/>
   
   
    
   
   <node id="1492679755" type="priority" x="1136.60" y="1682.01"/>
   
   
    
   
   <node id="1492679756" type="priority" x="1026.32" y="1728.51"/>
   
   
    
   
   <node id="1492729095" type="priority" x="1143.34" y="1554.38"/>
   
   
    
   
   <node id="1492729097" type="traffic_light" x="1136.98" y="1555.75"/>
   
   
    
   
   <node id="1492729111" type="priority" x="1194.74" y="1647.30"/>
   
   
    
   
   <node id="1492729114" type="priority" x="1188.93" y="1650.44"/>
   
   
    
   
   <node id="1492802030" type="priority" x="1117.60" y="1560.14"/>
   
   
    
   
   <node id="1492802032" type="priority" x="1122.02" y="1563.99"/>
   
   
    
   
   <node id="1492802033" type="traffic_light" x="1120.05" y="1564.67"/>
   
   
    
   
   <node id="1492802034" type="traffic_light" x="1117.83" y="1565.42"/>
   
   
    
   
   <node id="1492802065" type="priority" x="1160.56" y="1598.29"/>
   
   
    
   
   <node id="1492802066" type="traffic_light" x="1145.61" y="1606.54"/>
   
   
    
   
   <node id="1492802067" type="priority" x="1168.47" y="1612.55"/>
   
   
    
   
   <node id="1492802068" type="traffic_light" x="1153.72" y="1621.16"/>
   
   
    
   
   <node id="1492802069" type="priority" x="1209.75" y="1641.33"/>
   
   
    
   
   <node id="1492802079" type="priority" x="1176.46" y="1662.20"/>
   
   
    
   
   <node id="1492802080" type="priority" x="1174.72" y="1663.32"/>
   
   
    
   
   <node id="1492802092" type="traffic_light" x="1216.97" y="1667.71"/>
   
   
    
   
   <node id="1492802093" type="traffic_light" x="1177.73" y="1668.72"/>
   
   
    
   
   <node id="1492802125" type="priority" x="1162.96" y="1689.16"/>
   
   
    
   
   <node id="1492802133" type="priority" x="1157.49" y="1691.46"/>
   
   
    
   
   <node id="1492802135" type="priority" x="1143.04" y="1697.36"/>
   
   
    
   
   <node id="1492802180" type="traffic_light" x="1243.08" y="1747.99"/>
   
   
    
   
   <node id="1492802187" type="priority" x="1033.01" y="1743.77"/>
   
   
    
   
   <node id="1492802188" type="traffic_light" x="1030.34" y="1744.89"/>
   
   
    
   
   <node id="1520433227" type="priority" x="1150.83" y="1446.55"/>
   
   
    
   
   <node id="1523162665" type="priority" x="1243.53" y="1276.83"/>
   
   
    
   
   <node id="1523162688" type="priority" x="1224.36" y="1282.32"/>
   
   
    
   
   <node id="1525505187" type="priority" x="1058.91" y="1437.96"/>
   
   
    
   
   <node id="1546385394" type="traffic_light" x="749.39" y="1322.94"/>
   
   
    
   
   <node id="1546385396" type="traffic_light" x="771.53" y="1343.32"/>
   
   
    
   
   <node id="1581750763" type="traffic_light" x="975.36" y="2133.15"/>
   
   
    
   
   <node id="1588583830" type="traffic_light" x="829.12" y="1379.00"/>
   
   
    
   
   <node id="1588583836" type="priority" x="820.26" y="1394.06"/>
   
   
    
   
   <node id="1588583838" type="priority" x="819.88" y="1400.29"/>
   
   
    
   
   <node id="1588614171" type="priority" x="1075.40" y="1877.75"/>
   
   
    
   
   <node id="1588614178" type="traffic_light" x="991.76" y="1905.02"/>
   
   
    
   
   <node id="1618076276" type="priority" x="1152.14" y="1636.78"/>
   
   
    
   
   <node id="1618076279" type="priority" x="1133.51" y="1648.35"/>
   
   
    
   
   <node id="1618076280" type="traffic_light" x="1129.03" y="1651.13"/>
   
   
    
   
   <node id="1627542968" type="priority" x="1150.76" y="1448.88"/>
   
   
    
   
   <node id="1627542972" type="traffic_light" x="1150.64" y="1452.89"/>
   
   
    
   
   <node id="1633007385" type="traffic_light" x="1102.23" y="1415.75"/>
   
   
    
   
   <node id="1633007386" type="traffic_light" x="1103.93" y="1415.87"/>
   
   
    
   
   <node id="1633007387" type="priority" x="1110.14" y="1416.49"/>
   
   
    
   
   <node id="1633007392" type="traffic_light" x="1131.55" y="1428.49"/>
   
   
    
   
   <node id="1633007394" type="priority" x="1130.94" y="1433.66"/>
   
   
    
   
   <node id="1633007411" type="traffic_light" x="1087.28" y="1484.23"/>
   
   
    
   
   <node id="1638162257" type="priority" x="1123.85" y="1658.99"/>
   
   
    
   
   <node id="1638162321" type="traffic_light" x="1077.33" y="1432.07"/>
   
   
    
   
   <node id="1638162329" type="priority" x="1116.83" y="1628.39"/>
   
   
    
   
   <node id="1638162333" type="priority" x="1113.49" y="1630.08"/>
   
   
    
   
   <node id="1638162337" type="traffic_light" x="1106.07" y="1633.78"/>
   
   
    
   
   <node id="1638162345" type="traffic_light" x="1075.95" y="1647.07"/>
   
   
    
   
   <node id="1638162350" type="traffic_light" x="1131.51" y="1656.02"/>
   
   
    
   
   <node id="1638162362" type="traffic_light" x="1090.44" y="1681.83"/>
   
   
    
   
   <node id="1638162367" type="traffic_light" x="1091.31" y="1683.93"/>
   
   
    
   
   <node id="1638162370" type="priority" x="1064.81" y="1692.33"/>
   
   
    
   
   <node id="1638162372" type="priority" x="1096.78" y="1697.20"/>
   
   
    
   
   <node id="1638162374" type="traffic_light" x="1097.35" y="1698.56"/>
   
   
    
   
   <node id="1638162381" type="traffic_light" x="1100.13" y="1705.29"/>
   
   
    
   
   <node id="1639755548" type="traffic_light" x="1267.05" y="1742.90"/>
   
   
    
   
   <node id="1639755552" type="traffic_light" x="1242.42" y="1742.07"/>
   
   
    
   
   <node id="1639755555" type="priority" x="1242.83" y="1745.63"/>
   
   
    
   
   <node id="1639755557" type="priority" x="1262.47" y="1748.75"/>
   
   
    
   
   <node id="1639755560" type="priority" x="1273.93" y="1749.34"/>
   
   
    
   
   <node id="1639755562" type="traffic_light" x="1268.45" y="1756.32"/>
   
   
    
   
   <node id="1639755599" type="priority" x="1229.83" y="1825.86"/>
   
   
    
   
   <node id="1639755623" type="priority" x="1228.52" y="1877.90"/>
   
   
    
   
   <node id="1641547047" type="priority" x="857.49" y="1348.80"/>
   
   
    
   
   <node id="1641547058" type="traffic_light" x="844.67" y="1423.21"/>
   
   
    
   
   <node id="1641560176" type="priority" x="940.45" y="1220.15"/>
   
   
    
   
   <node id="1641560177" type="traffic_light" x="965.59" y="1223.54"/>
   
   
    
   
   <node id="1651682633" type="priority" x="1028.81" y="1240.10"/>
   
   
    
   
   <node id="1662768708" type="traffic_light" x="986.61" y="1367.34"/>
   
   
    
   
   <node id="1662768775" type="priority" x="958.87" y="1619.31"/>
   
   
    
   
   <node id="1662768800" type="traffic_light" x="979.39" y="1649.95"/>
   
   
    
   
   <node id="1662768802" type="priority" x="967.28" y="1655.03"/>
   
   
    
   
   <node id="1662768832" type="priority" x="1050.21" y="1668.51"/>
   
   
    
   
   <node id="1662768848" type="priority" x="1047.47" y="1674.87"/>
   
   
    
   
   <node id="1662768874" type="traffic_light" x="1051.95" y="1682.97"/>
   
   
    
   
   <node id="1662768902" type="priority" x="1022.74" y="1729.03"/>
   
   
    
   
   <node id="1662768903" type="traffic_light" x="1020.02" y="1730.27"/>
   
   
    
   
   <node id="1662768907" type="traffic_light" x="1014.60" y="1732.72"/>
   
   
    
   
   <node id="1667250502" type="priority" x="963.46" y="1466.76"/>
   
   
    
   
   <node id="1669284979" type="priority" x="1235.50" y="1531.19"/>
   
   
    
   
   <node id="1669401970" type="priority" x="1233.01" y="1507.28"/>
   
   
    
   
   <node id="1669402045" type="priority" x="1259.47" y="1495.41"/>
   
   
    
   
   <node id="1678228017" type="traffic_light" x="1318.48" y="1629.92"/>
   
   
    
   
   <node id="1678228032" type="priority" x="1358.27" y="1635.21"/>
   
   
    
   
   <node id="1678228035" type="priority" x="1309.70" y="1635.50"/>
   
   
    
   
   <node id="1678228078" type="priority" x="1344.45" y="1664.00"/>
   
   
    
   
   <node id="1678228083" type="priority" x="1314.74" y="1752.20"/>
   
   
    
   
   <node id="1678228091" type="priority" x="1344.65" y="1757.01"/>
   
   
    
   
   <node id="1678228101" type="priority" x="1362.13" y="1763.43"/>
   
   
    
   
   <node id="1678228110" type="traffic_light" x="1334.18" y="1789.46"/>
   
   
    
   
   <node id="1680791734" type="priority" x="843.54" y="1344.33"/>
   
   
    
   
   <node id="1687734013" type="priority" x="750.50" y="1269.43"/>
   
   
    
   
   <node id="1687734029" type="priority" x="631.14" y="1291.71"/>
   
   
    
   
   <node id="1687734032" type="traffic_light" x="736.98" y="1319.41"/>
   
   
    
   
   <node id="1687734072" type="traffic_light" x="701.12" y="1351.11"/>
   
   
    