<?xml version="1.0" ?>
<tlLogics>
   <tlLogic id="1000099468" offset="0" programID="0" type="static">
      <phase duration="18.8923841679" state="G"/>
      <phase duration="7.71385154805" state="y"/>
   </tlLogic>
   <tlLogic id="1000099475" offset="0" programID="0" type="static">
      <phase duration="27.1338314239" state="GG"/>
      <phase duration="10.0" state="yy"/>
   </tlLogic>
   <tlLogic id="1000099503" offset="0" programID="0" type="static">
      <phase duration="26.6005897443" state="GGGrrrrrrrr"/>
      <phase duration="8.34308233637" state="yyyrrrrrrrr"/>
      <phase duration="26.6005897443" state="rrrGGGrrrrr"/>
      <phase duration="8.34308233637" state="rrryyyrrrrr"/>
      <phase duration="26.6005897443" state="rrrrrrGGGGG"/>
      <phase duration="8.34308233637" state="rrrrrryyyyy"/>
   </tlLogic>
   <tlLogic id="1000099520" offset="0" programID="0" type="static">
      <phase duration="13.5846378893" state="G"/>
      <phase duration="3.51454925429" state="y"/>
   </tlLogic>
   <tlLogic id="1000099544" offset="0" programID="0" type="static">
      <phase duration="8.47176229366" state="GGrrr"/>
      <phase duration="8.29329705361" state="yyrrr"/>
      <phase duration="8.47176229366" state="rrGGr"/>
      <phase duration="8.29329705361" state="rryyr"/>
      <phase duration="8.47176229366" state="rrrrG"/>
      <phase duration="8.29329705361" state="rrrry"/>
   </tlLogic>
   <tlLogic id="1000099551" offset="0" programID="0" type="static">
      <phase duration="35.8923434004" state="G"/>
      <phase duration="7.86858504805" state="y"/>
   </tlLogic>
   <tlLogic id="1000099553" offset="0" programID="0" type="static">
      <phase duration="9.12830562187" state="Gr"/>
      <phase duration="6.01233779811" state="yr"/>
      <phase duration="9.12830562187" state="rG"/>
      <phase duration="6.01233779811" state="ry"/>
   </tlLogic>
   <tlLogic id="1000099576" offset="0" programID="0" type="static">
      <phase duration="31.9614211845" state="Grrrr"/>
      <phase duration="5.4158781263" state="yrrrr"/>
      <phase duration="31.9614211845" state="rGGrr"/>
      <phase duration="5.4158781263" state="ryyrr"/>
      <phase duration="31.9614211845" state="rrrGG"/>
      <phase duration="5.4158781263" state="rrryy"/>
   </tlLogic>
   <tlLogic id="1000099591" offset="0" programID="0" type="static">
      <phase duration="13.9193292171" state="GGrr"/>
      <phase duration="2.86357073809" state="yyrr"/>
      <phase duration="13.9193292171" state="rrGG"/>
      <phase duration="2.86357073809" state="rryy"/>
   </tlLogic>
   <tlLogic id="1000099651" offset="0" programID="0" type="static">
      <phase duration="4.97102182599" state="GGrrrr"/>
      <phase duration="4.18644133145" state="yyrrrr"/>
      <phase duration="4.97102182599" state="rrGGrr"/>
      <phase duration="4.18644133145" state="rryyrr"/>
      <phase duration="4.97102182599" state="rrrrGG"/>
      <phase duration="4.18644133145" state="rrrryy"/>
   </tlLogic>
   <tlLogic id="1000099741" offset="0" programID="0" type="static">
      <phase duration="38.9824529992" state="GGrr"/>
      <phase duration="4.18084716891" state="yyrr"/>
      <phase duration="38.9824529992" state="rrGG"/>
      <phase duration="4.18084716891" state="rryy"/>
   </tlLogic>
   <tlLogic id="1000099788" offset="0" programID="0" type="static">
      <phase duration="6.84868908892" state="GGrr"/>
      <phase duration="9.20369354043" state="yyrr"/>
      <phase duration="6.84868908892" state="rrGG"/>
      <phase duration="9.20369354043" state="rryy"/>
   </tlLogic>
   <tlLogic id="1028832536" offset="0" programID="0" type="static"/>
   <tlLogic id="1037290889" offset="0" programID="0" type="static">
      <phase duration="27.8043774968" state="GGrr"/>
      <phase duration="6.85959896195" state="yyrr"/>
      <phase duration="27.8043774968" state="rrGG"/>
      <phase duration="6.85959896195" state="rryy"/>
   </tlLogic>
   <tlLogic id="1040964328" offset="0" programID="0" type="static">
      <phase duration="19.4881292542" state="Gr"/>
      <phase duration="6.21282727462" state="yr"/>
      <phase duration="19.4881292542" state="rG"/>
      <phase duration="6.21282727462" state="ry"/>
   </tlLogic>
   <tlLogic id="1040964333" offset="0" programID="0" type="static">
      <phase duration="30.9578115069" state="Gr"/>
      <phase duration="7.22825761364" state="yr"/>
      <phase duration="30.9578115069" state="rG"/>
      <phase duration="7.22825761364" state="ry"/>
   </tlLogic>
   <tlLogic id="1045044863" offset="0" programID="0" type="static">
      <phase duration="13.2610707332" state="G"/>
      <phase duration="2.97473680342" state="y"/>
   </tlLogic>
   <tlLogic id="1062771951" offset="0" programID="0" type="static">
      <phase duration="27.8160831121" state="GGrr"/>
      <phase duration="6.65229371647" state="yyrr"/>
      <phase duration="27.8160831121" state="rrGG"/>
      <phase duration="6.65229371647" state="rryy"/>
   </tlLogic>
   <tlLogic id="1109589944" offset="0" programID="0" type="static">
      <phase duration="10.7369650878" state="GGGrrrrrr"/>
      <phase duration="6.18241194264" state="yyyrrrrrr"/>
      <phase duration="10.7369650878" state="rrrGGGrrr"/>
      <phase duration="6.18241194264" state="rrryyyrrr"/>
      <phase duration="10.7369650878" state="rrrrrrGGG"/>
      <phase duration="6.18241194264" state="rrrrrryyy"/>
   </tlLogic>
   <tlLogic id="1150667540" offset="0" programID="0" type="static">
      <phase duration="27.3897060722" state="G"/>
      <phase duration="6.64947541166" state="y"/>
   </tlLogic>
   <tlLogic id="1150667546" offset="0" programID="0" type="static">
      <phase duration="4.37081817289" state="G"/>
      <phase duration="9.17732091131" state="y"/>
   </tlLogic>
   <tlLogic id="1150667552" offset="0" programID="0" type="static">
      <phase duration="29.559046978" state="Gr"/>
      <phase duration="2.97809364569" state="yr"/>
      <phase duration="29.559046978" state="rG"/>
      <phase duration="2.97809364569" state="ry"/>
   </tlLogic>
   <tlLogic id="1150667555" offset="0" programID="0" type="static">
      <phase duration="23.2717706066" state="Gr"/>
      <phase duration="6.80636957113" state="yr"/>
      <phase duration="23.2717706066" state="rG"/>
      <phase duration="6.80636957113" state="ry"/>
   </tlLogic>
   <tlLogic id="1150667558" offset="0" programID="0" type="static">
      <phase duration="4.08745123882" state="Gr"/>
      <phase duration="9.17752006526" state="yr"/>
      <phase duration="4.08745123882" state="rG"/>
      <phase duration="9.17752006526" state="ry"/>
   </tlLogic>
   <tlLogic id="1150667560" offset="0" programID="0" type="static">
      <phase duration="3.9792418847" state="G"/>
      <phase duration="2.13522651255" state="y"/>
   </tlLogic>
   <tlLogic id="1150667586" offset="0" programID="0" type="static">
      <phase duration="11.7544059729" state="G"/>
      <phase duration="8.83829053919" state="y"/>
   </tlLogic>
   <tlLogic id="1150667603" offset="0" programID="0" type="static">
      <phase duration="32.9149994154" state="Gr"/>
      <phase duration="2.83892978354" state="yr"/>
      <phase duration="32.9149994154" state="rG"/>
      <phase duration="2.83892978354" state="ry"/>
   </tlLogic>
   <tlLogic id="1150667604" offset="0" programID="0" type="static">
      <phase duration="13.0348966326" state="Gr"/>
      <phase duration="7.08513541764" state="yr"/>
      <phase duration="13.0348966326" state="rG"/>
      <phase duration="7.08513541764" state="ry"/>
   </tlLogic>
   <tlLogic id="1150667608" offset="0" programID="0" type="static">
      <phase duration="27.3300310096" state="Gr"/>
      <phase duration="9.36640171908" state="yr"/>
      <phase duration="27.3300310096" state="rG"/>
      <phase duration="9.36640171908" state="ry"/>
   </tlLogic>
   <tlLogic id="1156723839" offset="0" programID="0" type="static">
      <phase duration="19.987745866" state="Gr"/>
      <phase duration="4.75823099659" state="yr"/>
      <phase duration="19.987745866" state="rG"/>
      <phase duration="4.75823099659" state="ry"/>
   </tlLogic>
   <tlLogic id="1200892937" offset="0" programID="0" type="static">
      <phase duration="17.1639452864" state="G"/>
      <phase duration="3.17023146554" state="y"/>
   </tlLogic>
   <tlLogic id="1200892960" offset="0" programID="0" type="static">
      <phase duration="26.3073992162" state="Gr"/>
      <phase duration="6.56694508605" state="yr"/>
      <phase duration="26.3073992162" state="rG"/>
      <phase duration="6.56694508605" state="ry"/>
   </tlLogic>
   <tlLogic id="1201745377" offset="0" programID="0" type="static">
      <phase duration="21.9039572721" state="G"/>
      <phase duration="8.63429453457" state="y"/>
   </tlLogic>
   <tlLogic id="1201745399" offset="0" programID="0" type="static"/>
   <tlLogic id="1201745409" offset="0" programID="0" type="static">
      <phase duration="29.5266955359" state="G"/>
      <phase duration="7.68964566936" state="y"/>
   </tlLogic>
   <tlLogic id="1211136497" offset="0" programID="0" type="static">
      <phase duration="11.5590687604" state="GGrr"/>
      <phase duration="8.4759299139" state="yyrr"/>
      <phase duration="11.5590687604" state="rrGG"/>
      <phase duration="8.4759299139" state="rryy"/>
   </tlLogic>
   <tlLogic id="1211136595" offset="0" programID="0" type="static">
      <phase duration="38.6410118299" state="G"/>
      <phase duration="8.92891468998" state="y"/>
   </tlLogic>
   <tlLogic id="1220020505" offset="0" programID="0" type="static">
      <phase duration="34.5663425987" state="G"/>
      <phase duration="4.76752425596" state="y"/>
   </tlLogic>
   <tlLogic id="1220020630" offset="0" programID="0" type="static">
      <phase duration="29.5849692953" state="Gr"/>
      <phase duration="6.37476363795" state="yr"/>
      <phase duration="29.5849692953" state="rG"/>
      <phase duration="6.37476363795" state="ry"/>
   </tlLogic>
   <tlLogic id="1220020673" offset="0" programID="0" type="static">
      <phase duration="33.8321433311" state="GGGrrrrrr"/>
      <phase duration="3.58056285932" state="yyyrrrrrr"/>
      <phase duration="33.8321433311" state="rrrGGGrrr"/>
      <phase duration="3.58056285932" state="rrryyyrrr"/>
      <phase duration="33.8321433311" state="rrrrrrGGG"/>
      <phase duration="3.58056285932" state="rrrrrryyy"/>
   </tlLogic>
   <tlLogic id="1220020679" offset="0" programID="0" type="static">
      <phase duration="21.220137943" state="GGrr"/>
      <phase duration="4.04957040323" state="yyrr"/>
      <phase duration="21.220137943" state="rrGG"/>
      <phase duration="4.04957040323" state="rryy"/>
   </tlLogic>
   <tlLogic id="1229522502" offset="0" programID="0" type="static">
      <phase duration="38.3012577487" state="Gr"/>
      <phase duration="6.0999764283" state="yr"/>
      <phase duration="38.3012577487" state="rG"/>
      <phase duration="6.0999764283" state="ry"/>
   </tlLogic>
   <tlLogic id="1229522552" offset="0" programID="0" type="static">
      <phase duration="22.817224992" state="G"/>
      <phase duration="7.52021241438" state="y"/>
   </tlLogic>
   <tlLogic id="1229522554" offset="0" programID="0" type="static">
      <phase duration="14.3929869597" state="G"/>
      <phase duration="7.01939299326" state="y"/>
   </tlLogic>
   <tlLogic id="1252285082" offset="0" programID="0" type="static">
      <phase duration="27.0438158355" state="G"/>
      <phase duration="2.63313730685" state="y"/>
   </tlLogic>
   <tlLogic id="1252285085" offset="0" programID="0" type="static">
      <phase duration="20.5816383674" state="Gr"/>
      <phase duration="9.21439657582" state="yr"/>
      <phase duration="20.5816383674" state="rG"/>
      <phase duration="9.21439657582" state="ry"/>
   </tlLogic>
   <tlLogic id="1252285087" offset="0" programID="0" type="static"/>
   <tlLogic id="1252285093" offset="0" programID="0" type="static">
      <phase duration="32.6507957669" state="Gr"/>
      <phase duration="10.0" state="yr"/>
      <phase duration="32.6507957669" state="rG"/>
      <phase duration="10.0" state="ry"/>
   </tlLogic>
   <tlLogic id="1252285107" offset="0" programID="0" type="static">
      <phase duration="9.31130190028" state="G"/>
      <phase duration="8.00658922257" state="y"/>
   </tlLogic>
   <tlLogic id="1252285137" offset="0" programID="0" type="static">
      <phase duration="11.0" state="Gr"/>
      <phase duration="3.05813246649" state="yr"/>
      <phase duration="11.0" state="rG"/>
      <phase duration="3.05813246649" state="ry"/>
   </tlLogic>
   <tlLogic id="1271504747" offset="0" programID="0" type="static">
      <phase duration="31.4934815566" state="Gr"/>
      <phase duration="9.62579496294" state="yr"/>
      <phase duration="31.4934815566" state="rG"/>
      <phase duration="9.62579496294" state="ry"/>
   </tlLogic>
   <tlLogic id="1271504748" offset="0" programID="0" type="static">
      <phase duration="12.9698045408" state="Gr"/>
      <phase duration="10.0" state="yr"/>
      <phase duration="12.9698045408" state="rG"/>
      <phase duration="10.0" state="ry"/>
   </tlLogic>
   <tlLogic id="1271504750" offset="0" programID="0" type="static">
      <phase duration="15.1882985201" state="G"/>
      <phase duration="1.21906842124" state="y"/>
   </tlLogic>
   <tlLogic id="1271504755" offset="0" programID="0" type="static">
      <phase duration="25.9922467687" state="GGrrr"/>
      <phase duration="6.44072115218" state="yyrrr"/>
      <phase duration="25.9922467687" state="rrGrr"/>
      <phase duration="6.44072115218" state="rryrr"/>
      <phase duration="25.9922467687" state="rrrGG"/>
      <phase duration="6.44072115218" state="rrryy"/>
   </tlLogic>
   <tlLogic id="1271504756" offset="0" programID="0" type="static">
      <phase duration="38.4077434869" state="Gr"/>
      <phase duration="7.44960923359" state="yr"/>
      <phase duration="38.4077434869" state="rG"/>
      <phase duration="7.44960923359" state="ry"/>
   </tlLogic>
   <tlLogic id="1271504762" offset="0" programID="0" type="static">
      <phase duration="17.5003413275" state="G"/>
      <phase duration="10.0" state="y"/>
   </tlLogic>
   <tlLogic id="1271504763" offset="0" programID="0" type="static">
      <phase duration="30.8418265413" state="G"/>
      <phase duration="10.0" state="y"/>
   </tlLogic>
   <tlLogic id="1271504764" offset="0" programID="0" type="static">
      <phase duration="25.6674214837" state="G"/>
      <phase duration="9.69677076738" state="y"/>
   </tlLogic>
   <tlLogic id="1271504774" offset="0" programID="0" type="static">
      <phase duration="24.9969218358" state="G"/>
      <phase duration="8.69920924122" state="y"/>
   </tlLogic>
   <tlLogic id="1271504778" offset="0" programID="0" type="static">
      <phase duration="22.0235358352" state="G"/>
      <phase duration="6.93427972619" state="y"/>
   </tlLogic>
   <tlLogic id="1271504783" offset="0" programID="0" type="static">
      <phase duration="22.2310028198" state="Gr"/>
      <phase duration="3.51290841132" state="yr"/>
      <phase duration="22.2310028198" state="rG"/>
      <phase duration="3.51290841132" state="ry"/>
   </tlLogic>
   <tlLogic id="1271504788" offset="0" programID="0" type="static">
      <phase duration="15.7658068332" state="GGrrr"/>
      <phase duration="10.0" state="yyrrr"/>
      <phase duration="15.7658068332" state="rrGGG"/>
      <phase duration="10.0" state="rryyy"/>
   </tlLogic>
   <tlLogic id="1271504795" offset="0" programID="0" type="static">
      <phase duration="13.7079046825" state="G"/>
      <phase duration="4.09657998951" state="y"/>
   </tlLogic>
   <tlLogic id="1271504797" offset="0" programID="0" type="static">
      <phase duration="29.4899052972" state="Gr"/>
      <phase duration="5.89884884325" state="yr"/>
      <phase duration="29.4899052972" state="rG"/>
      <phase duration="5.89884884325" state="ry"/>
   </tlLogic>
   <tlLogic id="1271504804" offset="0" programID="0" type="static">
      <phase duration="15.2949443006" state="Gr"/>
      <phase duration="5.08245819885" state="yr"/>
      <phase duration="15.2949443006" state="rG"/>
      <phase duration="5.08245819885" state="ry"/>
   </tlLogic>
   <tlLogic id="1271504814" offset="0" programID="0" type="static">
      <phase duration="7.92674437101" state="G"/>
      <phase duration="5.76994802592" state="y"/>
   </tlLogic>
   <tlLogic id="1271504816" offset="0" programID="0" type="static">
      <phase duration="11.5789104118" state="G"/>
      <phase duration="4.03293659518" state="y"/>
   </tlLogic>
   <tlLogic id="1271504819" offset="0" programID="0" type="static">
      <phase duration="2.15394750456" state="Gr"/>
      <phase duration="5.9372734647" state="yr"/>
      <phase duration="2.15394750456" state="rG"/>
      <phase duration="5.9372734647" state="ry"/>
   </tlLogic>
   <tlLogic id="1271504822" offset="0" programID="0" type="static">
      <phase duration="19.0355011702" state="G"/>
      <phase duration="5.03106494946" state="y"/>
   </tlLogic>
   <tlLogic id="1271504830" offset="0" programID="0" type="static">
      <phase duration="39.6062675806" state="GGrrr"/>
      <phase duration="8.9945328088" state="yyrrr"/>
      <phase duration="39.6062675806" state="rrGrr"/>
      <phase duration="8.9945328088" state="rryrr"/>
      <phase duration="39.6062675806" state="rrrGG"/>
      <phase duration="8.9945328088" state="rrryy"/>
   </tlLogic>
   <tlLogic id="1271504831" offset="0" programID="0" type="static">
      <phase duration="5.42500840739" state="G"/>
      <phase duration="8.07503646481" state="y"/>
   </tlLogic>
   <tlLogic id="1271504832" offset="0" programID="0" type="static">
      <phase duration="13.9235763018" state="Gr"/>
      <phase duration="5.51605639437" state="yr"/>
      <phase duration="13.9235763018" state="rG"/>
      <phase duration="5.51605639437" state="ry"/>
   </tlLogic>
   <tlLogic id="1271504834" offset="0" programID="0" type="static">
      <phase duration="8.2701403949" state="G"/>
      <phase duration="10.0" state="y"/>
   </tlLogic>
   <tlLogic id="1271504836" offset="0" programID="0" type="static">
      <phase duration="36.0214853145" state="G"/>
      <phase duration="3.90815006095" state="y"/>
   </tlLogic>
   <tlLogic id="1271504842" offset="0" programID="0" type="static">
      <phase duration="24.5069759369" state="G"/>
      <phase duration="6.40239830444" state="y"/>
   </tlLogic>
   <tlLogic id="1271504844" offset="0" programID="0" type="static">
      <phase duration="16.604611096" state="G"/>
      <phase duration="2.31988260085" state="y"/>
   </tlLogic>
   <tlLogic id="1271504850" offset="0" programID="0" type="static">
      <phase duration="6.75300011916" state="Gr"/>
      <phase duration="9.60068323082" state="yr"/>
      <phase duration="6.75300011916" state="rG"/>
      <phase duration="9.60068323082" state="ry"/>
   </tlLogic>
   <tlLogic id="1271504858" offset="0" programID="0" type="static">
      <phase duration="23.6961587199" state="G"/>
      <phase duration="10.0" state="y"/>
   </tlLogic>
   <tlLogic id="1271504861" offset="0" programID="0" type="static">
      <phase duration="17.9043394194" state="G"/>
      <phase duration="2.83206228485" state="y"/>
   </tlLogic>
   <tlLogic id="1271504864" offset="0" programID="0" type="static">
      <phase duration="36.5383792591" state="G"/>
      <phase duration="6.49802148235" state="y"/>
   </tlLogic>
   <tlLogic id="1271504866" offset="0" programID="0" type="static">
      <phase duration="34.0244052737" state="G"/>
      <phase duration="8.24598118011" state="y"/>
   </tlLogic>
   <tlLogic id="1271504867" offset="0" programID="0" type="static">
      <phase duration="32.5669128016" state="G"/>
      <phase duration="8.52571160111" state="y"/>
   </tlLogic>
   <tlLogic id="1271504868" offset="0" programID="0" type="static">
      <phase duration="20.3063572232" state="Gr"/>
      <phase duration="7.28579168549" state="yr"/>
      <phase duration="20.3063572232" state="rG"/>
      <phase duration="7.28579168549" state="ry"/>
   </tlLogic>
   <tlLogic id="1271504874" offset="0" programID="0" type="static">
      <phase duration="28.7947717228" state="G"/>
      <phase duration="6.33248147026" state="y"/>
   </tlLogic>
   <tlLogic id="1271504875" offset="0" programID="0" type="static">
      <phase duration="23.061183064" state="G"/>
      <phase duration="6.8249525221" state="y"/>
   </tlLogic>
   <tlLogic id="1271504883" offset="0" programID="0" type="static">
      <phase duration="14.6620231748" state="GGrrr"/>
      <phase duration="6.36761943682" state="yyrrr"/>
      <phase duration="14.6620231748" state="rrGrr"/>
      <phase duration="6.36761943682" state="rryrr"/>
      <phase duration="14.6620231748" state="rrrGG"/>
      <phase duration="6.36761943682" state="rrryy"/>
   </tlLogic>
   <tlLogic id="1271504884" offset="0" programID="0" type="static">
      <phase duration="24.2821982" state="G"/>
      <phase duration="2.13230686931" state="y"/>
   </tlLogic>
   <tlLogic id="1271504887" offset="0" programID="0" type="static">
      <phase duration="39.0114879188" state="G"/>
      <phase duration="9.95749326483" state="y"/>
   </tlLogic>
   <tlLogic id="1271504888" offset="0" programID="0" type="static">
      <phase duration="31.242390248" state="G"/>
      <phase duration="10.0" state="y"/>
   </tlLogic>
   <tlLogic id="1271504891" offset="0" programID="0" type="static">
      <phase duration="36.4829367554" state="G"/>
      <phase duration="10.0" state="y"/>
   </tlLogic>
   <tlLogic id="1271504893" offset="0" programID="0" type="static">
      <phase duration="23.966472996" state="GGrrr"/>
      <phase duration="6.45884617417" state="yyrrr"/>
      <phase duration="23.966472996" state="rrGrr"/>
      <phase duration="6.45884617417" state="rryrr"/>
      <phase duration="23.966472996" state="rrrGG"/>
      <phase duration="6.45884617417" state="rrryy"/>
   </tlLogic>
   <tlLogic id="1271504899" offset="0" programID="0" type="static">
      <phase duration="25.9708199538" state="G"/>
      <phase duration="8.6649272342" state="y"/>
   </tlLogic>
   <tlLogic id="1271504901" offset="0" programID="0" type="static">
      <phase duration="35.1457804338" state="GGrrr"/>
      <phase duration="9.46792591081" state="yyrrr"/>
      <phase duration="35.1457804338" state="rrGrr"/>
      <phase duration="9.46792591081" state="rryrr"/>
      <phase duration="35.1457804338" state="rrrGG"/>
      <phase duration="9.46792591081" state="rrryy"/>
   </tlLogic>
   <tlLogic id="1271504904" offset="0" programID="0" type="static">
      <phase duration="29.0885618661" state="Grr"/>
      <phase duration="3.60812417478" state="yrr"/>
      <phase duration="29.0885618661" state="rGG"/>
      <phase duration="3.60812417478" state="ryy"/>
   </tlLogic>
   <tlLogic id="1271504907" offset="0" programID="0" type="static">
      <phase duration="36.4695297894" state="G"/>
      <phase duration="9.6353997915" state="y"/>
   </tlLogic>
   <tlLogic id="1271504910" offset="0" programID="0" type="static">
      <phase duration="26.8025115033" state="Gr"/>
      <phase duration="8.67992482658" state="yr"/>
      <phase duration="26.8025115033" state="rG"/>
      <phase duration="8.67992482658" state="ry"/>
   </tlLogic>
   <tlLogic id="1271504913" offset="0" programID="0" type="static">
      <phase duration="35.7739370654" state="GGrrr"/>
      <phase duration="6.03012711535" state="yyrrr"/>
      <phase duration="35.7739370654" state="rrGGr"/>
      <phase duration="6.03012711535" state="rryyr"/>
      <phase duration="35.7739370654" state="rrrrG"/>
      <phase duration="6.03012711535" state="rrrry"/>
   </tlLogic>
   <tlLogic id="1271504914" offset="0" programID="0" type="static">
      <phase duration="16.5822067023" state="G"/>
      <phase duration="3.79776719985" state="y"/>
   </tlLogic>
   <tlLogic id="1298727142" offset="0" programID="0" type="static">
      <phase duration="23.2809539137" state="Gr"/>
      <phase duration="1.64253184903" state="yr"/>
      <phase duration="23.2809539137" state="rG"/>
      <phase duration="1.64253184903" state="ry"/>
   </tlLogic>
   <tlLogic id="1299369678" offset="0" programID="0" type="static">
      <phase duration="22.4605937293" state="G"/>
      <phase duration="7.22755744927" state="y"/>
   </tlLogic>
   <tlLogic id="1299369686" offset="0" programID="0" type="static">
      <phase duration="20.7728454947" state="G"/>
      <phase duration="8.73048414735" state="y"/>
   </tlLogic>
   <tlLogic id="1299369689" offset="0" programID="0" type="static">
      <phase duration="30.99452391" state="GGrrr"/>
      <phase duration="9.78039991092" state="yyrrr"/>
      <phase duration="30.99452391" state="rrGrr"/>
      <phase duration="9.78039991092" state="rryrr"/>
      <phase duration="30.99452391" state="rrrGG"/>
      <phase duration="9.78039991092" state="rrryy"/>
   </tlLogic>
   <tlLogic id="1299369691" offset="0" programID="0" type="static">
      <phase duration="13.2823535642" state="Gr"/>
      <phase duration="5.74557761595" state="yr"/>
      <phase duration="13.2823535642" state="rG"/>
      <phase duration="5.74557761595" state="ry"/>
   </tlLogic>
   <tlLogic id="1299369699" offset="0" programID="0" type="static">
      <phase duration="8.21690218686" state="G"/>
      <phase duration="4.54120497916" state="y"/>
   </tlLogic>
   <tlLogic id="1299369701" offset="0" programID="0" type="static">
      <phase duration="24.2210225131" state="GGrrr"/>
      <phase duration="7.58808860677" state="yyrrr"/>
      <phase duration="24.2210225131" state="rrGrr"/>
      <phase duration="7.58808860677" state="rryrr"/>
      <phase duration="24.2210225131" state="rrrGG"/>
      <phase duration="7.58808860677" state="rrryy"/>
   </tlLogic>
   <tlLogic id="1312440659" offset="0" programID="0" type="static">
      <phase duration="24.8373369509" state="GGrrr"/>
      <phase duration="7.41906032982" state="yyrrr"/>
      <phase duration="24.8373369509" state="rrGrr"/>
      <phase duration="7.41906032982" state="rryrr"/>
      <phase duration="24.8373369509" state="rrrGG"/>
      <phase duration="7.41906032982" state="rrryy"/>
   </tlLogic>
   <tlLogic id="1353566368" offset="0" programID="0" type="static">
      <phase duration="21.0591365934" state="G"/>
      <phase duration="6.08869563603" state="y"/>
   </tlLogic>
   <tlLogic id="1366801174" offset="0" programID="0" type="static">
      <phase duration="21.5614387004" state="G"/>
      <phase duration="8.14977513937" state="y"/>
   </tlLogic>
   <tlLogic id="1366801190" offset="0" programID="0" type="static"/>
   <tlLogic id="1366801191" offset="0" programID="0" type="static">
      <phase duration="22.1758420961" state="G"/>
      <phase duration="5.4248597033" state="y"/>
   </tlLogic>
   <tlLogic id="1366801200" offset="0" programID="0" type="static">
      <phase duration="14.1126766905" state="Gr"/>
      <phase duration="3.10210021827" state="yr"/>
      <phase duration="14.1126766905" state="rG"/>
      <phase duration="3.10210021827" state="ry"/>
   </tlLogic>
   <tlLogic id="1366801217" offset="0" programID="0" type="static">
      <phase duration="21.2780733609" state="G"/>
      <phase duration="3.14110830996" state="y"/>
   </tlLogic>
   <tlLogic id="1366801262" offset="0" programID="0" type="static">
      <phase duration="16.3658939713" state="G"/>
      <phase duration="6.08305367839" state="y"/>
   </tlLogic>
   <tlLogic id="1366801267" offset="0" programID="0" type="static">
      <phase duration="32.0566235254" state="Grr"/>
      <phase duration="2.40777346166" state="yrr"/>
      <phase duration="32.0566235254" state="rGr"/>
      <phase duration="2.40777346166" state="ryr"/>
      <phase duration="32.0566235254" state="rrG"/>
      <phase duration="2.40777346166" state="rry"/>
   </tlLogic>
   <tlLogic id="1492679681" offset="0" programID="0" type="static">
      <phase duration="21.013716611" state="G"/>
      <phase duration="4.01432114662" state="y"/>
   </tlLogic>
   <tlLogic id="1492679688" offset="0" programID="0" type="static">
      <phase duration="11.766493276" state="G"/>
      <phase duration="9.98061916665" state="y"/>
   </tlLogic>
   <tlLogic id="1492679696" offset="0" programID="0" type="static">
      <phase duration="10.4336519181" state="Gr"/>
      <phase duration="4.01490600324" state="yr"/>
      <phase duration="10.4336519181" state="rG"/>
      <phase duration="4.01490600324" state="ry"/>
   </tlLogic>
   <tlLogic id="1492679718" offset="0" programID="0" type="static"/>
   <tlLogic id="1492679729" offset="0" programID="0" type="static">
      <phase duration="6.46794469002" state="G"/>
      <phase duration="6.40890506289" state="y"/>
   </tlLogic>
   <tlLogic id="1492679731" offset="0" programID="0" type="static">
      <phase duration="8.57414652354" state="Gr"/>
      <phase duration="2.32745092754" state="yr"/>
      <phase duration="8.57414652354" state="rG"/>
      <phase duration="2.32745092754" state="ry"/>
   </tlLogic>
   <tlLogic id="1492679738" offset="0" programID="0" type="static">
      <phase duration="32.9367734728" state="G"/>
      <phase duration="4.87802146029" state="y"/>
   </tlLogic>
   <tlLogic id="1492679740" offset="0" programID="0" type="static">
      <phase duration="21.0486375285" state="G"/>
      <phase duration="5.79782953642" state="y"/>
   </tlLogic>
   <tlLogic id="1492679747" offset="0" programID="0" type="static">
      <phase duration="5.20789612261" state="Gr"/>
      <phase duration="3.55395604126" state="yr"/>
      <phase duration="5.20789612261" state="rG"/>
      <phase duration="3.55395604126" state="ry"/>
   </tlLogic>
   <tlLogic id="1492679749" offset="0" programID="0" type="static">
      <phase duration="25.9837620131" state="GGrrr"/>
      <phase duration="9.11962951923" state="yyrrr"/>