<?xml version="1.0" ?>
<tlLogics>
   <tlLogic id="1000099468" offset="0" programID="0" type="static">
      <phase duration="23.1649022202" state="G"/>
      <phase duration="3.98352114171" state="y"/>
   </tlLogic>
   <tlLogic id="1000099475" offset="0" programID="0" type="static">
      <phase duration="13.6186655704" state="GG"/>
      <phase duration="4.75669025633" state="yy"/>
   </tlLogic>
   <tlLogic id="1000099520" offset="0" programID="0" type="static">
      <phase duration="23.3091389799" state="G"/>
      <phase duration="4.35468528067" state="y"/>
   </tlLogic>
   <tlLogic id="1000099551" offset="0" programID="0" type="static">
      <phase duration="1.62223029818" state="G"/>
      <phase duration="2.20745390212" state="y"/>
   </tlLogic>
   <tlLogic id="1000099576" offset="0" programID="0" type="static">
      <phase duration="25.5943797419" state="Grrrr"/>
      <phase duration="5.4532344108" state="yrrrr"/>
      <phase duration="25.5943797419" state="rGGrr"/>
      <phase duration="5.4532344108" state="ryyrr"/>
      <phase duration="25.5943797419" state="rrrGG"/>
      <phase duration="5.4532344108" state="rrryy"/>
   </tlLogic>
   <tlLogic id="1000099650" offset="0" programID="0" type="static">
      <phase duration="14.571574199" state="G"/>
      <phase duration="6.58143791944" state="y"/>
   </tlLogic>
   <tlLogic id="1012326820" offset="0" programID="0" type="static">
      <phase duration="4.95612252313" state="G"/>
      <phase duration="5.4163409712" state="y"/>
   </tlLogic>
   <tlLogic id="1028832186" offset="0" programID="0" type="static"/>
   <tlLogic id="1028832536" offset="0" programID="0" type="static"/>
   <tlLogic id="1037290808" offset="0" programID="0" type="static">
      <phase duration="13.8145853477" state="GGGrrrrrr"/>
      <phase duration="4.75919365767" state="yyyrrrrrr"/>
      <phase duration="13.8145853477" state="rrrGGGrrr"/>
      <phase duration="4.75919365767" state="rrryyyrrr"/>
      <phase duration="13.8145853477" state="rrrrrrGGG"/>
      <phase duration="4.75919365767" state="rrrrrryyy"/>
   </tlLogic>
   <tlLogic id="1037290915" offset="0" programID="0" type="static">
      <phase duration="15.9531778017" state="GGrrr"/>
      <phase duration="5.88422151376" state="yyrrr"/>
      <phase duration="15.9531778017" state="rrGGG"/>
      <phase duration="5.88422151376" state="rryyy"/>
   </tlLogic>
   <tlLogic id="1037290944" offset="0" programID="0" type="static">
      <phase duration="33.9752736358" state="G"/>
      <phase duration="3.70971459797" state="y"/>
   </tlLogic>
   <tlLogic id="1040964328" offset="0" programID="0" type="static">
      <phase duration="24.8174115906" state="Gr"/>
      <phase duration="5.39086947703" state="yr"/>
      <phase duration="24.8174115906" state="rG"/>
      <phase duration="5.39086947703" state="ry"/>
   </tlLogic>
   <tlLogic id="1040964333" offset="0" programID="0" type="static">
      <phase duration="25.4897466177" state="Gr"/>
      <phase duration="5.66849938205" state="yr"/>
      <phase duration="25.4897466177" state="rG"/>
      <phase duration="5.66849938205" state="ry"/>
   </tlLogic>
   <tlLogic id="1045044692" offset="0" programID="0" type="static">
      <phase duration="33.7903797729" state="Gr"/>
      <phase duration="6.24302049535" state="yr"/>
      <phase duration="33.7903797729" state="rG"/>
      <phase duration="6.24302049535" state="ry"/>
   </tlLogic>
   <tlLogic id="1045044715" offset="0" programID="0" type="static">
      <phase duration="13.3495072357" state="Gr"/>
      <phase duration="1.43079893943" state="yr"/>
      <phase duration="13.3495072357" state="rG"/>
      <phase duration="1.43079893943" state="ry"/>
   </tlLogic>
   <tlLogic id="1045044750" offset="0" programID="0" type="static">
      <phase duration="37.3982809719" state="Gr"/>
      <phase duration="3.1643722825" state="yr"/>
      <phase duration="37.3982809719" state="rG"/>
      <phase duration="3.1643722825" state="ry"/>
   </tlLogic>
   <tlLogic id="1045044796" offset="0" programID="0" type="static">
      <phase duration="16.029142414" state="Gr"/>
      <phase duration="2.46128992068" state="yr"/>
      <phase duration="16.029142414" state="rG"/>
      <phase duration="2.46128992068" state="ry"/>
   </tlLogic>
   <tlLogic id="1045044803" offset="0" programID="0" type="static">
      <phase duration="28.1434078035" state="Gr"/>
      <phase duration="6.32149195117" state="yr"/>
      <phase duration="28.1434078035" state="rG"/>
      <phase duration="6.32149195117" state="ry"/>
   </tlLogic>
   <tlLogic id="1045044863" offset="0" programID="0" type="static">
      <phase duration="16.9684737259" state="G"/>
      <phase duration="4.40896237207" state="y"/>
   </tlLogic>
   <tlLogic id="1062771990" offset="0" programID="0" type="static">
      <phase duration="14.4899043886" state="G"/>
      <phase duration="6.74406272795" state="y"/>
   </tlLogic>
   <tlLogic id="1109589987" offset="0" programID="0" type="static">
      <phase duration="25.2891810652" state="GGrr"/>
      <phase duration="6.39481327176" state="yyrr"/>
      <phase duration="25.2891810652" state="rrGG"/>
      <phase duration="6.39481327176" state="rryy"/>
   </tlLogic>
   <tlLogic id="1123630986" offset="0" programID="0" type="static">
      <phase duration="10.7784977553" state="G"/>
      <phase duration="7.42695756092" state="y"/>
   </tlLogic>
   <tlLogic id="1150667546" offset="0" programID="0" type="static">
      <phase duration="25.7940583537" state="G"/>
      <phase duration="5.01592362173" state="y"/>
   </tlLogic>
   <tlLogic id="1150667555" offset="0" programID="0" type="static">
      <phase duration="6.30311455" state="Gr"/>
      <phase duration="5.68766717627" state="yr"/>
      <phase duration="6.30311455" state="rG"/>
      <phase duration="5.68766717627" state="ry"/>
   </tlLogic>
   <tlLogic id="1150667558" offset="0" programID="0" type="static">
      <phase duration="24.3140512167" state="Gr"/>
      <phase duration="2.69815848369" state="yr"/>
      <phase duration="24.3140512167" state="rG"/>
      <phase duration="2.69815848369" state="ry"/>
   </tlLogic>
   <tlLogic id="1150667571" offset="0" programID="0" type="static">
      <phase duration="24.1226265338" state="G"/>
      <phase duration="6.5074401762" state="y"/>
   </tlLogic>
   <tlLogic id="1150667586" offset="0" programID="0" type="static">
      <phase duration="10.2924900517" state="G"/>
      <phase duration="4.64846115395" state="y"/>
   </tlLogic>
   <tlLogic id="1150667604" offset="0" programID="0" type="static">
      <phase duration="18.1380360292" state="Gr"/>
      <phase duration="6.7252508529" state="yr"/>
      <phase duration="18.1380360292" state="rG"/>
      <phase duration="6.7252508529" state="ry"/>
   </tlLogic>
   <tlLogic id="1150667608" offset="0" programID="0" type="static">
      <phase duration="31.8545990583" state="Gr"/>
      <phase duration="8.5185124969" state="yr"/>
      <phase duration="31.8545990583" state="rG"/>
      <phase duration="8.5185124969" state="ry"/>
   </tlLogic>
   <tlLogic id="1150667618" offset="0" programID="0" type="static">
      <phase duration="20.3829926646" state="G"/>
      <phase duration="7.19183246686" state="y"/>
   </tlLogic>
   <tlLogic id="1150667622" offset="0" programID="0" type="static">
      <phase duration="14.232821816" state="G"/>
      <phase duration="5.0972038407" state="y"/>
   </tlLogic>
   <tlLogic id="1156723834" offset="0" programID="0" type="static">
      <phase duration="30.6998773178" state="G"/>
      <phase duration="3.98644890265" state="y"/>
   </tlLogic>
   <tlLogic id="1201745377" offset="0" programID="0" type="static">
      <phase duration="32.948703255" state="G"/>
      <phase duration="4.68941708403" state="y"/>
   </tlLogic>
   <tlLogic id="1211136497" offset="0" programID="0" type="static">
      <phase duration="30.4725723613" state="GGrr"/>
      <phase duration="3.09284055547" state="yyrr"/>
      <phase duration="30.4725723613" state="rrGG"/>
      <phase duration="3.09284055547" state="rryy"/>
   </tlLogic>
   <tlLogic id="1220020505" offset="0" programID="0" type="static">
      <phase duration="17.9209565298" state="G"/>
      <phase duration="8.49954824364" state="y"/>
   </tlLogic>
   <tlLogic id="1220020545" offset="0" programID="0" type="static">
      <phase duration="28.1680964877" state="GGrrr"/>
      <phase duration="5.20114977734" state="yyrrr"/>
      <phase duration="28.1680964877" state="rrGrr"/>
      <phase duration="5.20114977734" state="rryrr"/>
      <phase duration="28.1680964877" state="rrrGG"/>
      <phase duration="5.20114977734" state="rrryy"/>
   </tlLogic>
   <tlLogic id="1220020592" offset="0" programID="0" type="static">
      <phase duration="16.3566213183" state="Gr"/>
      <phase duration="5.61426041671" state="yr"/>
      <phase duration="16.3566213183" state="rG"/>
      <phase duration="5.61426041671" state="ry"/>
   </tlLogic>
   <tlLogic id="1220020607" offset="0" programID="0" type="static">
      <phase duration="22.5559909296" state="GGrr"/>
      <phase duration="5.45880336909" state="yyrr"/>
      <phase duration="22.5559909296" state="rrGG"/>
      <phase duration="5.45880336909" state="rryy"/>
   </tlLogic>
   <tlLogic id="1220020630" offset="0" programID="0" type="static">
      <phase duration="25.035390708" state="Gr"/>
      <phase duration="5.17204773966" state="yr"/>
      <phase duration="25.035390708" state="rG"/>
      <phase duration="5.17204773966" state="ry"/>
   </tlLogic>
   <tlLogic id="1220020656" offset="0" programID="0" type="static">
      <phase duration="11.5736461744" state="GGrr"/>
      <phase duration="9.44137986451" state="yyrr"/>
      <phase duration="11.5736461744" state="rrGG"/>
      <phase duration="9.44137986451" state="rryy"/>
   </tlLogic>
   <tlLogic id="1229522509" offset="0" programID="0" type="static">
      <phase duration="32.9372732145" state="G"/>
      <phase duration="2.82711831838" state="y"/>
   </tlLogic>
   <tlLogic id="1229522552" offset="0" programID="0" type="static">
      <phase duration="18.6073444379" state="G"/>
      <phase duration="2.8675956392" state="y"/>
   </tlLogic>
   <tlLogic id="1229522554" offset="0" programID="0" type="static">
      <phase duration="31.7509660648" state="G"/>
      <phase duration="2.75116730373" state="y"/>
   </tlLogic>
   <tlLogic id="1252265070" offset="0" programID="0" type="static"/>
   <tlLogic id="1252285079" offset="0" programID="0" type="static">
      <phase duration="19.8034136684" state="Gr"/>
      <phase duration="6.89709039932" state="yr"/>
      <phase duration="19.8034136684" state="rG"/>
      <phase duration="6.89709039932" state="ry"/>
   </tlLogic>
   <tlLogic id="1252285082" offset="0" programID="0" type="static">
      <phase duration="35.927902833" state="G"/>
      <phase duration="1.63493434646" state="y"/>
   </tlLogic>
   <tlLogic id="1252285085" offset="0" programID="0" type="static">
      <phase duration="26.3167750725" state="Gr"/>
      <phase duration="8.28472285376" state="yr"/>
      <phase duration="26.3167750725" state="rG"/>
      <phase duration="8.28472285376" state="ry"/>
   </tlLogic>
   <tlLogic id="1252285087" offset="0" programID="0" type="static"/>
   <tlLogic id="1252285093" offset="0" programID="0" type="static">
      <phase duration="14.197390635" state="Gr"/>
      <phase duration="1.98261148329" state="yr"/>
      <phase duration="14.197390635" state="rG"/>
      <phase duration="1.98261148329" state="ry"/>
   </tlLogic>
   <tlLogic id="1252285138" offset="0" programID="0" type="static">
      <phase duration="35.7066751385" state="G"/>
      <phase duration="8.3796909666" state="y"/>
   </tlLogic>
   <tlLogic id="1258258237" offset="0" programID="0" type="static">
      <phase duration="8.89296705185" state="GGr"/>
      <phase duration="3.90398767637" state="yyr"/>
      <phase duration="8.89296705185" state="rrG"/>
      <phase duration="3.90398767637" state="rry"/>
   </tlLogic>
   <tlLogic id="1264255381" offset="0" programID="0" type="static">
      <phase duration="23.1006679854" state="GGGrrrrrr"/>
      <phase duration="4.71336780196" state="yyyrrrrrr"/>
      <phase duration="23.1006679854" state="rrrGGGrrr"/>
      <phase duration="4.71336780196" state="rrryyyrrr"/>
      <phase duration="23.1006679854" state="rrrrrrGGG"/>
      <phase duration="4.71336780196" state="rrrrrryyy"/>
   </tlLogic>
   <tlLogic id="1271504738" offset="0" programID="0" type="static">
      <phase duration="34.3646379825" state="Gr"/>
      <phase duration="6.33320688488" state="yr"/>
      <phase duration="34.3646379825" state="rG"/>
      <phase duration="6.33320688488" state="ry"/>
   </tlLogic>
   <tlLogic id="1271504743" offset="0" programID="0" type="static">
      <phase duration="20.3946110561" state="G"/>
      <phase duration="2.91348841091" state="y"/>
   </tlLogic>
   <tlLogic id="1271504747" offset="0" programID="0" type="static">
      <phase duration="21.2626873242" state="Gr"/>
      <phase duration="4.84664160385" state="yr"/>
      <phase duration="21.2626873242" state="rG"/>
      <phase duration="4.84664160385" state="ry"/>
   </tlLogic>
   <tlLogic id="1271504748" offset="0" programID="0" type="static">
      <phase duration="22.796912459" state="Gr"/>
      <phase duration="5.1013817532" state="yr"/>
      <phase duration="22.796912459" state="rG"/>
      <phase duration="5.1013817532" state="ry"/>
   </tlLogic>
   <tlLogic id="1271504756" offset="0" programID="0" type="static">
      <phase duration="13.8819762727" state="Gr"/>
      <phase duration="8.40421900808" state="yr"/>
      <phase duration="13.8819762727" state="rG"/>
      <phase duration="8.40421900808" state="ry"/>
   </tlLogic>
   <tlLogic id="1271504757" offset="0" programID="0" type="static">
      <phase duration="31.2103108197" state="GGrrr"/>
      <phase duration="3.2404982315" state="yyrrr"/>
      <phase duration="31.2103108197" state="rrGrr"/>
      <phase duration="3.2404982315" state="rryrr"/>
      <phase duration="31.2103108197" state="rrrGG"/>
      <phase duration="3.2404982315" state="rrryy"/>
   </tlLogic>
   <tlLogic id="1271504758" offset="0" programID="0" type="static">
      <phase duration="29.5307186075" state="G"/>
      <phase duration="1.31028859372" state="y"/>
   </tlLogic>
   <tlLogic id="1271504762" offset="0" programID="0" type="static">
      <phase duration="31.9705440227" state="G"/>
      <phase duration="6.66141420778" state="y"/>
   </tlLogic>
   <tlLogic id="1271504766" offset="0" programID="0" type="static">
      <phase duration="37.2380975515" state="Gr"/>
      <phase duration="3.82283484395" state="yr"/>
      <phase duration="37.2380975515" state="rG"/>
      <phase duration="3.82283484395" state="ry"/>
   </tlLogic>
   <tlLogic id="1271504768" offset="0" programID="0" type="static">
      <phase duration="16.2971491299" state="Gr"/>
      <phase duration="3.84752137836" state="yr"/>
      <phase duration="16.2971491299" state="rG"/>
      <phase duration="3.84752137836" state="ry"/>
   </tlLogic>
   <tlLogic id="1271504774" offset="0" programID="0" type="static">
      <phase duration="28.9659741997" state="G"/>
      <phase duration="3.2663749203" state="y"/>
   </tlLogic>
   <tlLogic id="1271504775" offset="0" programID="0" type="static">
      <phase duration="22.3586826666" state="Gr"/>
      <phase duration="7.22828898577" state="yr"/>
      <phase duration="22.3586826666" state="rG"/>
      <phase duration="7.22828898577" state="ry"/>
   </tlLogic>
   <tlLogic id="1271504778" offset="0" programID="0" type="static">
      <phase duration="27.3006379321" state="G"/>
      <phase duration="8.02223505017" state="y"/>
   </tlLogic>
   <tlLogic id="1271504781" offset="0" programID="0" type="static">
      <phase duration="16.9534561566" state="GGrrr"/>
      <phase duration="1.80833651208" state="yyrrr"/>
      <phase duration="16.9534561566" state="rrGrr"/>
      <phase duration="1.80833651208" state="rryrr"/>
      <phase duration="16.9534561566" state="rrrGG"/>
      <phase duration="1.80833651208" state="rrryy"/>
   </tlLogic>
   <tlLogic id="1271504797" offset="0" programID="0" type="static">
      <phase duration="33.0158613979" state="Gr"/>
      <phase duration="8.01339754623" state="yr"/>
      <phase duration="33.0158613979" state="rG"/>
      <phase duration="8.01339754623" state="ry"/>
   </tlLogic>
   <tlLogic id="1271504804" offset="0" programID="0" type="static">
      <phase duration="31.7307538297" state="Gr"/>
      <phase duration="7.19086096502" state="yr"/>
      <phase duration="31.7307538297" state="rG"/>
      <phase duration="7.19086096502" state="ry"/>
   </tlLogic>
   <tlLogic id="1271504812" offset="0" programID="0" type="static">
      <phase duration="21.5438738508" state="G"/>
      <phase duration="3.4650926979" state="y"/>
   </tlLogic>
   <tlLogic id="1271504814" offset="0" programID="0" type="static">
      <phase duration="18.1309740084" state="G"/>
      <phase duration="3.58376407986" state="y"/>
   </tlLogic>
   <tlLogic id="1271504817" offset="0" programID="0" type="static">
      <phase duration="14.5996666743" state="G"/>
      <phase duration="9.59555474674" state="y"/>
   </tlLogic>
   <tlLogic id="1271504819" offset="0" programID="0" type="static">
      <phase duration="13.303976347" state="Gr"/>
      <phase duration="7.77663806048" state="yr"/>
      <phase duration="13.303976347" state="rG"/>
      <phase duration="7.77663806048" state="ry"/>
   </tlLogic>
   <tlLogic id="1271504830" offset="0" programID="0" type="static">
      <phase duration="25.8419500347" state="GGrrr"/>
      <phase duration="3.6909283172" state="yyrrr"/>
      <phase duration="25.8419500347" state="rrGrr"/>
      <phase duration="3.6909283172" state="rryrr"/>
      <phase duration="25.8419500347" state="rrrGG"/>
      <phase duration="3.6909283172" state="rrryy"/>
   </tlLogic>
   <tlLogic id="1271504831" offset="0" programID="0" type="static">
      <phase duration="29.9408591298" state="G"/>
      <phase duration="4.00905492635" state="y"/>
   </tlLogic>
   <tlLogic id="1271504836" offset="0" programID="0" type="static">
      <phase duration="11.0328157543" state="G"/>
      <phase duration="7.37940453444" state="y"/>
   </tlLogic>
   <tlLogic id="1271504843" offset="0" programID="0" type="static">
      <phase duration="17.9355656921" state="Gr"/>
      <phase duration="6.93959024401" state="yr"/>
      <phase duration="17.9355656921" state="rG"/>
      <phase duration="6.93959024401" state="ry"/>
   </tlLogic>
   <tlLogic id="1271504845" offset="0" programID="0" type="static">
      <phase duration="37.2597660845" state="G"/>
      <phase duration="5.45648672555" state="y"/>
   </tlLogic>
   <tlLogic id="1271504849" offset="0" programID="0" type="static">
      <phase duration="25.8746687095" state="GGrrr"/>
      <phase duration="2.22326168933" state="yyrrr"/>
      <phase duration="25.8746687095" state="rrGrr"/>
      <phase duration="2.22326168933" state="rryrr"/>
      <phase duration="25.8746687095" state="rrrGG"/>
      <phase duration="2.22326168933" state="rrryy"/>
   </tlLogic>
   <tlLogic id="1271504850" offset="0" programID="0" type="static">
      <phase duration="12.4736875145" state="Gr"/>
      <phase duration="4.40299152826" state="yr"/>
      <phase duration="12.4736875145" state="rG"/>
      <phase duration="4.40299152826" state="ry"/>
   </tlLogic>
   <tlLogic id="1271504851" offset="0" programID="0" type="static">
      <phase duration="15.677189047" state="G"/>
      <phase duration="5.08708269625" state="y"/>
   </tlLogic>
   <tlLogic id="1271504852" offset="0" programID="0" type="static">
      <phase duration="33.1533609769" state="G"/>
      <phase duration="4.76028690217" state="y"/>
   </tlLogic>
   <tlLogic id="1271504864" offset="0" programID="0" type="static">
      <phase duration="19.4876824856" state="G"/>
      <phase duration="8.50840667995" state="y"/>
   </tlLogic>
   <tlLogic id="1271504866" offset="0" programID="0" type="static">
      <phase duration="26.9839111349" state="G"/>
      <phase duration="5.75645700276" state="y"/>
   </tlLogic>
   <tlLogic id="1271504867" offset="0" programID="0" type="static">
      <phase duration="10.5140712426" state="G"/>
      <phase duration="4.15961922023" state="y"/>
   </tlLogic>
   <tlLogic id="1271504868" offset="0" programID="0" type="static">
      <phase duration="34.0483821339" state="Gr"/>
      <phase duration="2.57421318467" state="yr"/>
      <phase duration="34.0483821339" state="rG"/>
      <phase duration="2.57421318467" state="ry"/>
   </tlLogic>
   <tlLogic id="1271504870" offset="0" programID="0" type="static">
      <phase duration="25.8444470548" state="G"/>
      <phase duration="2.17309885663" state="y"/>
   </tlLogic>
   <tlLogic id="1271504873" offset="0" programID="0" type="static">
      <phase duration="21.9337350341" state="GGrrr"/>
      <phase duration="3.90865674048" state="yyrrr"/>
      <phase duration="21.9337350341" state="rrGrr"/>
      <phase duration="3.90865674048" state="rryrr"/>
      <phase duration="21.9337350341" state="rrrGG"/>
      <phase duration="3.90865674048" state="rrryy"/>
   </tlLogic>
   <tlLogic id="1271504875" offset="0" programID="0" type="static">
      <phase duration="23.3353130743" state="G"/>
      <phase duration="6.43307255274" state="y"/>
   </tlLogic>
   <tlLogic id="1271504881" offset="0" programID="0" type="static">
      <phase duration="4.36021267779" state="GGrrr"/>
      <phase duration="3.4671044226" state="yyrrr"/>
      <phase duration="4.36021267779" state="rrGrr"/>
      <phase duration="3.4671044226" state="rryrr"/>
      <phase duration="4.36021267779" state="rrrGG"/>
      <phase duration="3.4671044226" state="rrryy"/>
   </tlLogic>
   <tlLogic id="1271504884" offset="0" programID="0" type="static">
      <phase duration="21.7155765068" state="G"/>
      <phase duration="7.32824165022" state="y"/>
   </tlLogic>
   <tlLogic id="1271504891" offset="0" programID="0" type="static">
      <phase duration="7.01689447265" state="G"/>
      <phase duration="2.4043524143" state="y"/>
   </tlLogic>
   <tlLogic id="1271504902" offset="0" programID="0" type="static">
      <phase duration="22.5245354137" state="Gr"/>
      <phase duration="6.19519568277" state="yr"/>
      <phase duration="22.5245354137" state="rG"/>
      <phase duration="6.19519568277" state="ry"/>
   </tlLogic>
   <tlLogic id="1271504907" offset="0" programID="0" type="static">
      <phase duration="21.9327937731" state="G"/>
      <phase duration="4.43365745617" state="y"/>
   </tlLogic>
   <tlLogic id="1271504908" offset="0" programID="0" type="static">
      <phase duration="7.38170959295" state="G"/>
      <phase duration="7.88557815933" state="y"/>
   </tlLogic>
   <tlLogic id="1271504918" offset="0" programID="0" type="static">
      <phase duration="12.2146215077" state="G"/>
      <phase duration="6.62948179648" state="y"/>
   </tlLogic>
   <tlLogic id="1298727142" offset="0" programID="0" type="static">
      <phase duration="7.10133463956" state="Gr"/>
      <phase duration="7.24144896618" state="yr"/>
      <phase duration="7.10133463956" state="rG"/>
      <phase duration="7.24144896618" state="ry"/>
   </tlLogic>
   <tlLogic id="1299369678" offset="0" programID="0" type="static">
      <phase duration="18.4808555085" state="G"/>
      <phase duration="6.3179246413" state="y"/>
   </tlLogic>
   <tlLogic id="1299369697" offset="0" programID="0" type="static">
      <phase duration="5.80678551393" state="G"/>
      <phase duration="7.34817619795" state="y"/>
   </tlLogic>
   <tlLogic id="1299369699" offset="0" programID="0" type="static">
      <phase duration="23.42204725" state="G"/>
      <phase duration="7.15403400622" state="y"/>
   </tlLogic>
   <tlLogic id="1299369701" offset="0" programID="0" type="static">
      <phase duration="24.080210576" state="GGrrr"/>
      <phase duration="9.05714151092" state="yyrrr"/>
      <phase duration="24.080210576" state="rrGrr"/>
      <phase duration="9.05714151092" state="rryrr"/>
      <phase duration="24.080210576" state="rrrGG"/>
      <phase duration="9.05714151092" state="rrryy"/>
   </tlLogic>
   <tlLogic id="1312440651" offset="0" programID="0" type="static">
      <phase duration="33.6217572816" state="G"/>
      <phase duration="4.56816510905" state="y"/>
   </tlLogic>
   <tlLogic id="1312440659" offset="0" programID="0" type="static">
      <phase duration="28.0598994746" state="GGrrr"/>
      <phase duration="7.97661544757" state="yyrrr"/>
      <phase duration="28.0598994746" state="rrGrr"/>
      <phase duration="7.97661544757" state="rryrr"/>
      <phase duration="28.0598994746" state="rrrGG"/>
      <phase duration="7.97661544757" state="rrryy"/>
   </tlLogic>
   <tlLogic id="1312440715" offset="0" programID="0" type="static">
      <phase duration="34.9018064812" state="Gr"/>
      <phase duration="3.3036784222" state="yr"/>
      <phase duration="34.9018064812" state="rG"/>
      <phase duration="3.3036784222" state="ry"/>
   </tlLogic>
   <tlLogic id="1312812204" offset="0" programID="0" type="static">
      <phase duration="9.35244844952" state="G"/>
      <phase duration="4.40356229834" state="y"/>
   </tlLogic>
   <tlLogic id="1353566368" offset="0" programID="0" type="static">
      <phase duration="30.5785718624" state="G"/>
      <phase duration="8.04771485772" state="y"/>
   </tlLogic>
   <tlLogic id="1360932319" offset="0" programID="0" type="static"/>
   <tlLogic id="1366801174" offset="0" programID="0" type="static">
      <phase duration="21.1671049967" state="G"/>
      <phase duration="7.15621768129" state="y"/>
   </tlLogic>
   <tlLogic id="1366801190" offset="0" programID="0" type="static"/>
   <tlLogic id="1366801191" offset="0" programID="0" type="static">
      <phase duration="29.1305123298" state="G"/>
      <phase duration="5.58492657014" state="y"/>
   </tlLogic>
   <tlLogic id="1366801217" offset="0" programID="0" type="static">
      <phase duration="15.2348804878" state="G"/>
      <phase duration="5.79660103606" state="y"/>
   </tlLogic>
   <tlLogic id="1366801221" offset="0" programID="0" type="static">
      <phase duration="26.9444001818" state="Gr"/>
      <phase duration="2.81065309834" state="yr"/>
      <phase duration="26.9444001818" state="rG"/>
      <phase duration="2.81065309834" state="ry"/>
   </tlLogic>
   <tlLogic id="1366801267" offset="0" programID="0" type="static">
      <phase duration="15.2473113433" state="Grr"/>
      <phase duration="8.6130024874" state="yrr"/>
      <phase duration="15.2473113433" state="rGr"/>
      <phase duration="8.6130024874" state="ryr"/>
      <phase duration="15.2473113433" state="rrG"/>
      <phase duration="8.6130024874" state="rry"/>
   </tlLogic>
   <tlLogic id="1492679681" offset="0" programID="0" type="static">
      <phase duration="24.2970185243" state="G"/>
      <phase duration="2.67275232894" state="y"/>
   </tlLogic>
   <tlLogic id="1492679687" offset="0" programID="0" type="static">
      <phase duration="12.2800509571" state="Gr"/>
      <phase duration="1.92124963422" state="yr"/>
      <phase duration="12.2800509571" state="rG"/>
      <phase duration="1.92124963422" state="ry"/>
   </tlLogic>
   <tlLogic id="1492679714" offset="0" programID="0" type="static">
      <phase duration="26.7313321643" state="Gr"/>
      <phase duration="4.94392663397" state="yr"/>
      <phase duration="26.7313321643" state="rG"/>
      <phase duration="4.94392663397" state="ry"/>
   </tlLogic>
   <tlLogic id="1492679718" offset="0" programID="0" type="static"/>
   <tlLogic id="1492679723" offset="0" programID="0" type="static">
      <phase duration="29.5109934387" state="GGrrr"/>
      <phase duration="9.16590727264" state="yyrrr"/>
      <phase duration="29.5109934387" state="rrGrr"/>
      <phase duration="9.16590727264" state="rryrr"/>
      <phase duration="29.5109934387" state="rrrGG"/>
      <phase duration="9.16590727264" state="rrryy"/>
   </tlLogic>
   <tlLogic id="1492679726" offset="0" programID="0" type="static">
      <phase duration="24.8072728262" state="G"/>
      <phase duration="6.15352880042" state="y"/>
   </tlLogic>
   <tlLogic id="1492679731" offset="0" programID="0" type="static">
      <phase duration="15.7880983934" state="Gr"/>
      <phase duration="6.64223338188" state="yr"/>
      <phase duration="15.7880983934" state="rG"/>
      <phase duration="6.64223338188" state="ry"/>
   </tlLogic>
   <tlLogic id="1492679738" offset="0" programID="0" type="static">
      <phase duration="6.82832855757" state="G"/>
      <phase duration="4.48958648141" state="y"/>
   </tlLogic>
   <tlLogic id="1492679741" offset="0" programID="0" type="static">
      <phase duration="13.3005055318" state="G"/>
      <phase duration="8.76481135324" state="y"/>
   </tlLogic>
   <tlLogic id="1492679749" offset="0" programID="0" type="static">
      <phase duration="11.1713932704" state="GGrrr"/>
      <phase duration="2.82035044506" state="yyrrr"/>
      <phase duration="11.1713932704" state="rrGGr"/>
      <phase duration="2.82035044506" state="rryyr"/>
      <phase duration="11.1713932704" state="rrrrG"/>
      <phase duration="2.82035044506" state="rrrry"/>
   </tlLogic>
   <tlLogic id="1492679753" offset="0" programID="0" type="static">
      <phase duration="13.3129135995" state="G"/>
      <phase duration="3.13644261337" state="y"/>
   </tlLogic>
   <tlLogic id="1492679756" offset="0" programID="0" type="static">
      <phase duration="34.291245688" state="G"/>
      <phase duration="5.33757296394" state="y"/>
   </tlLogic>
   <tlLogic id="1492729097" offset="0" programID="0" type="static">
      <phase duration="27.4344663105" state="Gr"/>
      <phase duration="1.50640035111" state="yr"/>
      <phase duration="27.4344663105" state="rG"/>