<?xml version="1.0" ?>
<tlLogics>
   <tlLogic id="1000099468" offset="0" programID="0" type="static">
      <phase duration="8.35648914072" state="G"/>
      <phase duration="9.87906837724" state="y"/>
   </tlLogic>
   <tlLogic id="1000099553" offset="0" programID="0" type="static">
      <phase duration="10.9833189978" state="Gr"/>
      <phase duration="3.01447193835" state="yr"/>
      <phase duration="10.9833189978" state="rG"/>
      <phase duration="3.01447193835" state="ry"/>
   </tlLogic>
   <tlLogic id="1000099591" offset="0" programID="0" type="static">
      <phase duration="12.6333927986" state="GGrr"/>
      <phase duration="9.9765884342" state="yyrr"/>
      <phase duration="12.6333927986" state="rrGG"/>
      <phase duration="9.9765884342" state="rryy"/>
   </tlLogic>
   <tlLogic id="1000099724" offset="0" programID="0" type="static">
      <phase duration="10.9564276954" state="Grrr"/>
      <phase duration="8.74419245486" state="yrrr"/>
      <phase duration="10.9564276954" state="rGGG"/>
      <phase duration="8.74419245486" state="ryyy"/>
   </tlLogic>
   <tlLogic id="1000099741" offset="0" programID="0" type="static">
      <phase duration="39.4951230249" state="GGrr"/>
      <phase duration="2.66203944166" state="yyrr"/>
      <phase duration="39.4951230249" state="rrGG"/>
      <phase duration="2.66203944166" state="rryy"/>
   </tlLogic>
   <tlLogic id="1012321580" offset="0" programID="0" type="static">
      <phase duration="16.0362817845" state="Gr"/>
      <phase duration="8.55388542875" state="yr"/>
      <phase duration="16.0362817845" state="rG"/>
      <phase duration="8.55388542875" state="ry"/>
   </tlLogic>
   <tlLogic id="1012326820" offset="0" programID="0" type="static">
      <phase duration="8.00760020897" state="G"/>
      <phase duration="1.33119299952" state="y"/>
   </tlLogic>
   <tlLogic id="1028832186" offset="0" programID="0" type="static"/>
   <tlLogic id="1028832536" offset="0" programID="0" type="static"/>
   <tlLogic id="1037290822" offset="0" programID="0" type="static">
      <phase duration="8.82251052224" state="GGrr"/>
      <phase duration="4.94366829279" state="yyrr"/>
      <phase duration="8.82251052224" state="rrGG"/>
      <phase duration="4.94366829279" state="rryy"/>
   </tlLogic>
   <tlLogic id="1037290889" offset="0" programID="0" type="static">
      <phase duration="21.3949180319" state="GGrr"/>
      <phase duration="6.08994476466" state="yyrr"/>
      <phase duration="21.3949180319" state="rrGG"/>
      <phase duration="6.08994476466" state="rryy"/>
   </tlLogic>
   <tlLogic id="1037290915" offset="0" programID="0" type="static">
      <phase duration="23.102905602" state="GGrrr"/>
      <phase duration="5.56273687046" state="yyrrr"/>
      <phase duration="23.102905602" state="rrGGG"/>
      <phase duration="5.56273687046" state="rryyy"/>
   </tlLogic>
   <tlLogic id="1040964328" offset="0" programID="0" type="static">
      <phase duration="11.1718758586" state="Gr"/>
      <phase duration="6.51472928814" state="yr"/>
      <phase duration="11.1718758586" state="rG"/>
      <phase duration="6.51472928814" state="ry"/>
   </tlLogic>
   <tlLogic id="1040964333" offset="0" programID="0" type="static">
      <phase duration="22.5818576422" state="Gr"/>
      <phase duration="3.87400539926" state="yr"/>
      <phase duration="22.5818576422" state="rG"/>
      <phase duration="3.87400539926" state="ry"/>
   </tlLogic>
   <tlLogic id="1045044715" offset="0" programID="0" type="static">
      <phase duration="20.4880301799" state="Gr"/>
      <phase duration="9.05322024943" state="yr"/>
      <phase duration="20.4880301799" state="rG"/>
      <phase duration="9.05322024943" state="ry"/>
   </tlLogic>
   <tlLogic id="1045044750" offset="0" programID="0" type="static">
      <phase duration="27.4236257026" state="Gr"/>
      <phase duration="7.99068955494" state="yr"/>
      <phase duration="27.4236257026" state="rG"/>
      <phase duration="7.99068955494" state="ry"/>
   </tlLogic>
   <tlLogic id="1045044803" offset="0" programID="0" type="static">
      <phase duration="26.3524815203" state="Gr"/>
      <phase duration="6.46720841647" state="yr"/>
      <phase duration="26.3524815203" state="rG"/>
      <phase duration="6.46720841647" state="ry"/>
   </tlLogic>
   <tlLogic id="1045044863" offset="0" programID="0" type="static">
      <phase duration="19.984026755" state="G"/>
      <phase duration="4.63007368997" state="y"/>
   </tlLogic>
   <tlLogic id="1062771951" offset="0" programID="0" type="static">
      <phase duration="13.7123984913" state="GGrr"/>
      <phase duration="5.21930236055" state="yyrr"/>
      <phase duration="13.7123984913" state="rrGG"/>
      <phase duration="5.21930236055" state="rryy"/>
   </tlLogic>
   <tlLogic id="1123630986" offset="0" programID="0" type="static">
      <phase duration="10.0967629661" state="G"/>
      <phase duration="6.51904468928" state="y"/>
   </tlLogic>
   <tlLogic id="1125127500" offset="0" programID="0" type="static">
      <phase duration="30.0044114673" state="GG"/>
      <phase duration="8.03993679002" state="yy"/>
   </tlLogic>
   <tlLogic id="1150667539" offset="0" programID="0" type="static">
      <phase duration="14.1452014174" state="G"/>
      <phase duration="1.48834894757" state="y"/>
   </tlLogic>
   <tlLogic id="1150667540" offset="0" programID="0" type="static">
      <phase duration="25.9254682171" state="G"/>
      <phase duration="6.21208172208" state="y"/>
   </tlLogic>
   <tlLogic id="1150667560" offset="0" programID="0" type="static">
      <phase duration="22.681079463" state="G"/>
      <phase duration="6.0568727906" state="y"/>
   </tlLogic>
   <tlLogic id="1150667568" offset="0" programID="0" type="static"/>
   <tlLogic id="1150667604" offset="0" programID="0" type="static">
      <phase duration="15.4653153542" state="Gr"/>
      <phase duration="9.31824145324" state="yr"/>
      <phase duration="15.4653153542" state="rG"/>
      <phase duration="9.31824145324" state="ry"/>
   </tlLogic>
   <tlLogic id="1150667618" offset="0" programID="0" type="static">
      <phase duration="25.6307306755" state="G"/>
      <phase duration="2.0530908887" state="y"/>
   </tlLogic>
   <tlLogic id="1156723779" offset="0" programID="0" type="static">
      <phase duration="26.0329604226" state="GGrrr"/>
      <phase duration="2.10675476355" state="yyrrr"/>
      <phase duration="26.0329604226" state="rrGrr"/>
      <phase duration="2.10675476355" state="rryrr"/>
      <phase duration="26.0329604226" state="rrrGG"/>
      <phase duration="2.10675476355" state="rrryy"/>
   </tlLogic>
   <tlLogic id="1156723834" offset="0" programID="0" type="static">
      <phase duration="31.787535612" state="G"/>
      <phase duration="1.58735312125" state="y"/>
   </tlLogic>
   <tlLogic id="1157698150" offset="0" programID="0" type="static">
      <phase duration="14.367755083" state="G"/>
      <phase duration="5.14760811002" state="y"/>
   </tlLogic>
   <tlLogic id="1200892937" offset="0" programID="0" type="static">
      <phase duration="37.1197205424" state="G"/>
      <phase duration="8.62406433043" state="y"/>
   </tlLogic>
   <tlLogic id="1200892960" offset="0" programID="0" type="static">
      <phase duration="14.503407925" state="Gr"/>
      <phase duration="8.75081267929" state="yr"/>
      <phase duration="14.503407925" state="rG"/>
      <phase duration="8.75081267929" state="ry"/>
   </tlLogic>
   <tlLogic id="1201745377" offset="0" programID="0" type="static">
      <phase duration="10.4179898158" state="G"/>
      <phase duration="8.69605628634" state="y"/>
   </tlLogic>
   <tlLogic id="1201745399" offset="0" programID="0" type="static"/>
   <tlLogic id="1211136497" offset="0" programID="0" type="static">
      <phase duration="17.41627292" state="GGrr"/>
      <phase duration="7.89360611106" state="yyrr"/>
      <phase duration="17.41627292" state="rrGG"/>
      <phase duration="7.89360611106" state="rryy"/>
   </tlLogic>
   <tlLogic id="1211136595" offset="0" programID="0" type="static">
      <phase duration="29.8407485147" state="G"/>
      <phase duration="7.15293928007" state="y"/>
   </tlLogic>
   <tlLogic id="1220020545" offset="0" programID="0" type="static">
      <phase duration="24.7609055843" state="GGrrr"/>
      <phase duration="4.74016703821" state="yyrrr"/>
      <phase duration="24.7609055843" state="rrGrr"/>
      <phase duration="4.74016703821" state="rryrr"/>
      <phase duration="24.7609055843" state="rrrGG"/>
      <phase duration="4.74016703821" state="rrryy"/>
   </tlLogic>
   <tlLogic id="1220020592" offset="0" programID="0" type="static">
      <phase duration="32.0753721036" state="Gr"/>
      <phase duration="6.1492873897" state="yr"/>
      <phase duration="32.0753721036" state="rG"/>
      <phase duration="6.1492873897" state="ry"/>
   </tlLogic>
   <tlLogic id="1220020630" offset="0" programID="0" type="static">
      <phase duration="16.6917567567" state="Gr"/>
      <phase duration="6.03784717211" state="yr"/>
      <phase duration="16.6917567567" state="rG"/>
      <phase duration="6.03784717211" state="ry"/>
   </tlLogic>
   <tlLogic id="1220020673" offset="0" programID="0" type="static">
      <phase duration="21.9221859387" state="GGGrrrrrr"/>
      <phase duration="4.06120947063" state="yyyrrrrrr"/>
      <phase duration="21.9221859387" state="rrrGGGrrr"/>
      <phase duration="4.06120947063" state="rrryyyrrr"/>
      <phase duration="21.9221859387" state="rrrrrrGGG"/>
      <phase duration="4.06120947063" state="rrrrrryyy"/>
   </tlLogic>
   <tlLogic id="1220020679" offset="0" programID="0" type="static">
      <phase duration="26.7137707331" state="GGrr"/>
      <phase duration="5.23412952933" state="yyrr"/>
      <phase duration="26.7137707331" state="rrGG"/>
      <phase duration="5.23412952933" state="rryy"/>
   </tlLogic>
   <tlLogic id="1229522509" offset="0" programID="0" type="static">
      <phase duration="9.55104084441" state="G"/>
      <phase duration="4.57421265588" state="y"/>
   </tlLogic>
   <tlLogic id="1229522552" offset="0" programID="0" type="static">
      <phase duration="15.5269557441" state="G"/>
      <phase duration="9.87614503601" state="y"/>
   </tlLogic>
   <tlLogic id="1252285079" offset="0" programID="0" type="static">
      <phase duration="32.9136200465" state="Gr"/>
      <phase duration="4.17445625099" state="yr"/>
      <phase duration="32.9136200465" state="rG"/>
      <phase duration="4.17445625099" state="ry"/>
   </tlLogic>
   <tlLogic id="1252285082" offset="0" programID="0" type="static">
      <phase duration="33.2902894545" state="G"/>
      <phase duration="5.82523739716" state="y"/>
   </tlLogic>
   <tlLogic id="1252285093" offset="0" programID="0" type="static">
      <phase duration="27.9437841339" state="Gr"/>
      <phase duration="8.38361059047" state="yr"/>
      <phase duration="27.9437841339" state="rG"/>
      <phase duration="8.38361059047" state="ry"/>
   </tlLogic>
   <tlLogic id="1252285105" offset="0" programID="0" type="static">
      <phase duration="22.6750614064" state="G"/>
      <phase duration="7.98907748241" state="y"/>
   </tlLogic>
   <tlLogic id="1252285107" offset="0" programID="0" type="static">
      <phase duration="24.1380966794" state="G"/>
      <phase duration="6.00094341736" state="y"/>
   </tlLogic>
   <tlLogic id="1252285133" offset="0" programID="0" type="static">
      <phase duration="21.8671372002" state="Gr"/>
      <phase duration="7.72133331528" state="yr"/>
      <phase duration="21.8671372002" state="rG"/>
      <phase duration="7.72133331528" state="ry"/>
   </tlLogic>
   <tlLogic id="1252285137" offset="0" programID="0" type="static">
      <phase duration="6.12673057712" state="Gr"/>
      <phase duration="8.97370436364" state="yr"/>
      <phase duration="6.12673057712" state="rG"/>
      <phase duration="8.97370436364" state="ry"/>
   </tlLogic>
   <tlLogic id="1252285138" offset="0" programID="0" type="static">
      <phase duration="25.0684322454" state="G"/>
      <phase duration="9.89360772097" state="y"/>
   </tlLogic>
   <tlLogic id="1252285140" offset="0" programID="0" type="static">
      <phase duration="30.7961392144" state="Gr"/>
      <phase duration="5.15411753889" state="yr"/>
      <phase duration="30.7961392144" state="rG"/>
      <phase duration="5.15411753889" state="ry"/>
   </tlLogic>
   <tlLogic id="1264255381" offset="0" programID="0" type="static">
      <phase duration="6.26908994855" state="GGGrrrrrr"/>
      <phase duration="5.91273365768" state="yyyrrrrrr"/>
      <phase duration="6.26908994855" state="rrrGGGrrr"/>
      <phase duration="5.91273365768" state="rrryyyrrr"/>
      <phase duration="6.26908994855" state="rrrrrrGGG"/>
      <phase duration="5.91273365768" state="rrrrrryyy"/>
   </tlLogic>
   <tlLogic id="1271504743" offset="0" programID="0" type="static">
      <phase duration="34.7386717899" state="G"/>
      <phase duration="4.55330210549" state="y"/>
   </tlLogic>
   <tlLogic id="1271504748" offset="0" programID="0" type="static">
      <phase duration="21.0806402321" state="Gr"/>
      <phase duration="7.53721344074" state="yr"/>
      <phase duration="21.0806402321" state="rG"/>
      <phase duration="7.53721344074" state="ry"/>
   </tlLogic>
   <tlLogic id="1271504750" offset="0" programID="0" type="static">
      <phase duration="23.5870211465" state="G"/>
      <phase duration="8.89001451775" state="y"/>
   </tlLogic>
   <tlLogic id="1271504755" offset="0" programID="0" type="static">
      <phase duration="31.4076591279" state="GGrrr"/>
      <phase duration="5.40862421745" state="yyrrr"/>
      <phase duration="31.4076591279" state="rrGrr"/>
      <phase duration="5.40862421745" state="rryrr"/>
      <phase duration="31.4076591279" state="rrrGG"/>
      <phase duration="5.40862421745" state="rrryy"/>
   </tlLogic>
   <tlLogic id="1271504757" offset="0" programID="0" type="static">
      <phase duration="33.8358028428" state="GGrrr"/>
      <phase duration="5.10005520779" state="yyrrr"/>
      <phase duration="33.8358028428" state="rrGrr"/>
      <phase duration="5.10005520779" state="rryrr"/>
      <phase duration="33.8358028428" state="rrrGG"/>
      <phase duration="5.10005520779" state="rrryy"/>
   </tlLogic>
   <tlLogic id="1271504758" offset="0" programID="0" type="static">
      <phase duration="38.1759462038" state="G"/>
      <phase duration="3.01576185372" state="y"/>
   </tlLogic>
   <tlLogic id="1271504762" offset="0" programID="0" type="static">
      <phase duration="13.3076117144" state="G"/>
      <phase duration="2.85327529156" state="y"/>
   </tlLogic>
   <tlLogic id="1271504766" offset="0" programID="0" type="static">
      <phase duration="9.20927259576" state="Gr"/>
      <phase duration="9.7361399913" state="yr"/>
      <phase duration="9.20927259576" state="rG"/>
      <phase duration="9.7361399913" state="ry"/>
   </tlLogic>
   <tlLogic id="1271504768" offset="0" programID="0" type="static">
      <phase duration="29.2025815055" state="Gr"/>
      <phase duration="9.42585189283" state="yr"/>
      <phase duration="29.2025815055" state="rG"/>
      <phase duration="9.42585189283" state="ry"/>
   </tlLogic>
   <tlLogic id="1271504773" offset="0" programID="0" type="static">
      <phase duration="37.7676100241" state="GGrrr"/>
      <phase duration="9.41094210693" state="yyrrr"/>
      <phase duration="37.7676100241" state="rrGrr"/>
      <phase duration="9.41094210693" state="rryrr"/>
      <phase duration="37.7676100241" state="rrrGG"/>
      <phase duration="9.41094210693" state="rrryy"/>
   </tlLogic>
   <tlLogic id="1271504774" offset="0" programID="0" type="static">
      <phase duration="18.9696691725" state="G"/>
      <phase duration="7.61919736468" state="y"/>
   </tlLogic>
   <tlLogic id="1271504775" offset="0" programID="0" type="static">
      <phase duration="31.3058846089" state="Gr"/>
      <phase duration="2.69931660591" state="yr"/>
      <phase duration="31.3058846089" state="rG"/>
      <phase duration="2.69931660591" state="ry"/>
   </tlLogic>
   <tlLogic id="1271504778" offset="0" programID="0" type="static">
      <phase duration="26.0202057513" state="G"/>
      <phase duration="9.73757957116" state="y"/>
   </tlLogic>
   <tlLogic id="1271504788" offset="0" programID="0" type="static">
      <phase duration="24.8051510604" state="GGrrr"/>
      <phase duration="7.50810801581" state="yyrrr"/>
      <phase duration="24.8051510604" state="rrGGG"/>
      <phase duration="7.50810801581" state="rryyy"/>
   </tlLogic>
   <tlLogic id="1271504795" offset="0" programID="0" type="static">
      <phase duration="16.9858391548" state="G"/>
      <phase duration="9.62288674498" state="y"/>
   </tlLogic>
   <tlLogic id="1271504797" offset="0" programID="0" type="static">
      <phase duration="24.5654216142" state="Gr"/>
      <phase duration="9.78024357083" state="yr"/>
      <phase duration="24.5654216142" state="rG"/>
      <phase duration="9.78024357083" state="ry"/>
   </tlLogic>
   <tlLogic id="1271504804" offset="0" programID="0" type="static">
      <phase duration="16.4285040981" state="Gr"/>
      <phase duration="9.25133762639" state="yr"/>
      <phase duration="16.4285040981" state="rG"/>
      <phase duration="9.25133762639" state="ry"/>
   </tlLogic>
   <tlLogic id="1271504812" offset="0" programID="0" type="static">
      <phase duration="9.42962020142" state="G"/>
      <phase duration="3.05452660906" state="y"/>
   </tlLogic>
   <tlLogic id="1271504813" offset="0" programID="0" type="static">
      <phase duration="5.91188420333" state="G"/>
      <phase duration="9.63103802336" state="y"/>
   </tlLogic>
   <tlLogic id="1271504814" offset="0" programID="0" type="static">
      <phase duration="8.53951186759" state="G"/>
      <phase duration="3.96388495178" state="y"/>
   </tlLogic>
   <tlLogic id="1271504816" offset="0" programID="0" type="static">
      <phase duration="20.1415552006" state="G"/>
      <phase duration="6.48374622563" state="y"/>
   </tlLogic>
   <tlLogic id="1271504819" offset="0" programID="0" type="static">
      <phase duration="14.2853361044" state="Gr"/>
      <phase duration="6.58848293136" state="yr"/>
      <phase duration="14.2853361044" state="rG"/>
      <phase duration="6.58848293136" state="ry"/>
   </tlLogic>
   <tlLogic id="1271504822" offset="0" programID="0" type="static">
      <phase duration="15.4429635111" state="G"/>
      <phase duration="6.06634823976" state="y"/>
   </tlLogic>
   <tlLogic id="1271504827" offset="0" programID="0" type="static">
      <phase duration="12.2057018117" state="Gr"/>
      <phase duration="4.0997299671" state="yr"/>
      <phase duration="12.2057018117" state="rG"/>
      <phase duration="4.0997299671" state="ry"/>
   </tlLogic>
   <tlLogic id="1271504828" offset="0" programID="0" type="static">
      <phase duration="22.6421048388" state="GGrrr"/>
      <phase duration="7.72884883466" state="yyrrr"/>
      <phase duration="22.6421048388" state="rrGrr"/>
      <phase duration="7.72884883466" state="rryrr"/>
      <phase duration="22.6421048388" state="rrrGG"/>
      <phase duration="7.72884883466" state="rrryy"/>
   </tlLogic>
   <tlLogic id="1271504829" offset="0" programID="0" type="static">
      <phase duration="26.5598766417" state="Gr"/>
      <phase duration="6.50920781991" state="yr"/>
      <phase duration="26.5598766417" state="rG"/>
      <phase duration="6.50920781991" state="ry"/>
   </tlLogic>
   <tlLogic id="1271504832" offset="0" programID="0" type="static">
      <phase duration="26.2749432025" state="Gr"/>
      <phase duration="9.95222675729" state="yr"/>
      <phase duration="26.2749432025" state="rG"/>
      <phase duration="9.95222675729" state="ry"/>
   </tlLogic>
   <tlLogic id="1271504834" offset="0" programID="0" type="static">
      <phase duration="15.4620220818" state="G"/>
      <phase duration="6.3682616634" state="y"/>
   </tlLogic>
   <tlLogic id="1271504849" offset="0" programID="0" type="static">
      <phase duration="6.01198664769" state="GGrrr"/>
      <phase duration="4.43842982385" state="yyrrr"/>
      <phase duration="6.01198664769" state="rrGrr"/>
      <phase duration="4.43842982385" state="rryrr"/>
      <phase duration="6.01198664769" state="rrrGG"/>
      <phase duration="4.43842982385" state="rrryy"/>
   </tlLogic>
   <tlLogic id="1271504858" offset="0" programID="0" type="static">
      <phase duration="34.4747432529" state="G"/>
      <phase duration="2.09773252188" state="y"/>
   </tlLogic>
   <tlLogic id="1271504861" offset="0" programID="0" type="static">
      <phase duration="21.2244952752" state="G"/>
      <phase duration="7.36739374526" state="y"/>
   </tlLogic>
   <tlLogic id="1271504864" offset="0" programID="0" type="static">
      <phase duration="34.3007114819" state="G"/>
      <phase duration="8.57023956586" state="y"/>
   </tlLogic>
   <tlLogic id="1271504866" offset="0" programID="0" type="static">
      <phase duration="21.7275850834" state="G"/>
      <phase duration="2.71858145825" state="y"/>
   </tlLogic>
   <tlLogic id="1271504868" offset="0" programID="0" type="static">
      <phase duration="21.186419263" state="Gr"/>
      <phase duration="9.58170293119" state="yr"/>
      <phase duration="21.186419263" state="rG"/>
      <phase duration="9.58170293119" state="ry"/>
   </tlLogic>
   <tlLogic id="1271504871" offset="0" programID="0" type="static">
      <phase duration="13.1448520511" state="GGrr"/>
      <phase duration="3.93253563885" state="yyrr"/>
      <phase duration="13.1448520511" state="rrGG"/>
      <phase duration="3.93253563885" state="rryy"/>
   </tlLogic>
   <tlLogic id="1271504873" offset="0" programID="0" type="static">
      <phase duration="19.6984159258" state="GGrrr"/>
      <phase duration="5.23233702116" state="yyrrr"/>
      <phase duration="19.6984159258" state="rrGrr"/>
      <phase duration="5.23233702116" state="rryrr"/>
      <phase duration="19.6984159258" state="rrrGG"/>
      <phase duration="5.23233702116" state="rrryy"/>
   </tlLogic>
   <tlLogic id="1271504874" offset="0" programID="0" type="static">
      <phase duration="23.6556721062" state="G"/>
      <phase duration="2.18216664763" state="y"/>
   </tlLogic>
   <tlLogic id="1271504878" offset="0" programID="0" type="static">
      <phase duration="22.835004655" state="G"/>
      <phase duration="8.66386224246" state="y"/>
   </tlLogic>
   <tlLogic id="1271504884" offset="0" programID="0" type="static">
      <phase duration="13.6573967509" state="G"/>
      <phase duration="4.42787922591" state="y"/>
   </tlLogic>
   <tlLogic id="1271504887" offset="0" programID="0" type="static">
      <phase duration="17.1354286759" state="G"/>
      <phase duration="1.95810719504" state="y"/>
   </tlLogic>
   <tlLogic id="1271504891" offset="0" programID="0" type="static">
      <phase duration="23.181920682" state="G"/>
      <phase duration="3.60117920642" state="y"/>
   </tlLogic>
   <tlLogic id="1271504898" offset="0" programID="0" type="static">
      <phase duration="31.0486978309" state="Gr"/>
      <phase duration="7.12006701008" state="yr"/>
      <phase duration="31.0486978309" state="rG"/>
      <phase duration="7.12006701008" state="ry"/>
   </tlLogic>
   <tlLogic id="1271504899" offset="0" programID="0" type="static">
      <phase duration="22.0421267482" state="G"/>
      <phase duration="6.65285461499" state="y"/>
   </tlLogic>
   <tlLogic id="1271504901" offset="0" programID="0" type="static">
      <phase duration="20.9847011469" state="GGrrr"/>
      <phase duration="3.49095448127" state="yyrrr"/>
      <phase duration="20.9847011469" state="rrGrr"/>
      <phase duration="3.49095448127" state="rryrr"/>
      <phase duration="20.9847011469" state="rrrGG"/>
      <phase duration="3.49095448127" state="rrryy"/>
   </tlLogic>
   <tlLogic id="1271504905" offset="0" programID="0" type="static">
      <phase duration="34.9638410204" state="G"/>
      <phase duration="7.92835863199" state="y"/>
   </tlLogic>
   <tlLogic id="1271504907" offset="0" programID="0" type="static">
      <phase duration="29.3497005641" state="G"/>
      <phase duration="9.03999593841" state="y"/>
   </tlLogic>
   <tlLogic id="1271504910" offset="0" programID="0" type="static">
      <phase duration="24.3506995923" state="Gr"/>
      <phase duration="9.9893491248" state="yr"/>
      <phase duration="24.3506995923" state="rG"/>
      <phase duration="9.9893491248" state="ry"/>
   </tlLogic>
   <tlLogic id="1271504911" offset="0" programID="0" type="static">
      <phase duration="8.45696393327" state="G"/>
      <phase duration="7.85246946155" state="y"/>
   </tlLogic>
   <tlLogic id="1298727142" offset="0" programID="0" type="static">
      <phase duration="27.5668284391" state="Gr"/>
      <phase duration="5.12085793933" state="yr"/>
      <phase duration="27.5668284391" state="rG"/>
      <phase duration="5.12085793933" state="ry"/>
   </tlLogic>
   <tlLogic id="1299369678" offset="0" programID="0" type="static">
      <phase duration="26.253183504" state="G"/>
      <phase duration="9.32718631291" state="y"/>
   </tlLogic>
   <tlLogic id="1299369684" offset="0" programID="0" type="static">
      <phase duration="21.4271977989" state="G"/>
      <phase duration="8.1452982274" state="y"/>
   </tlLogic>
   <tlLogic id="1299369686" offset="0" programID="0" type="static">
      <phase duration="23.0852545178" state="G"/>
      <phase duration="8.4912608849" state="y"/>
   </tlLogic>
   <tlLogic id="1299369691" offset="0" programID="0" type="static">
      <phase duration="16.1647869059" state="Gr"/>
      <phase duration="2.13804153741" state="yr"/>
      <phase duration="16.1647869059" state="rG"/>
      <phase duration="2.13804153741" state="ry"/>
   </tlLogic>
   <tlLogic id="1299369694" offset="0" programID="0" type="static">
      <phase duration="22.7445150412" state="G"/>
      <phase duration="3.35974066634" state="y"/>
   </tlLogic>
   <tlLogic id="1299369699" offset="0" programID="0" type="static">
      <phase duration="22.2209935968" state="G"/>
      <phase duration="9.91307133602" state="y"/>
   </tlLogic>
   <tlLogic id="1299369701" offset="0" programID="0" type="static">
      <phase duration="14.2509510169" state="GGrrr"/>
      <phase duration="4.7756400699" state="yyrrr"/>
      <phase duration="14.2509510169" state="rrGrr"/>
      <phase duration="4.7756400699" state="rryrr"/>
      <phase duration="14.2509510169" state="rrrGG"/>
      <phase duration="4.7756400699" state="rrryy"/>
   </tlLogic>
   <tlLogic id="1312440659" offset="0" programID="0" type="static">
      <phase duration="25.9948570874" state="GGrrr"/>
      <phase duration="3.81231127888" state="yyrrr"/>
      <phase duration="25.9948570874" state="rrGrr"/>
      <phase duration="3.81231127888" state="rryrr"/>
      <phase duration="25.9948570874" state="rrrGG"/>
      <phase duration="3.81231127888" state="rrryy"/>
   </tlLogic>
   <tlLogic id="1312812204" offset="0" programID="0" type="static">
      <phase duration="18.8268543406" state="G"/>
      <phase duration="7.17821082943" state="y"/>
   </tlLogic>
   <tlLogic id="1353566368" offset="0" programID="0" type="static">
      <phase duration="14.4533412885" state="G"/>
      <phase duration="6.15801554336" state="y"/>
   </tlLogic>
   <tlLogic id="1353566371" offset="0" programID="0" type="static">
      <phase duration="16.0100377748" state="G"/>
      <phase duration="4.42503641521" state="y"/>
   </tlLogic>
   <tlLogic id="1360932319" offset="0" programID="0" type="static"/>
   <tlLogic id="1366801185" offset="0" programID="0" type="static">
      <phase duration="22.9492805085" state="G"/>
      <phase duration="3.21107361756" state="y"/>
   </tlLogic>
   <tlLogic id="1366801190" offset="0" programID="0" type="static"/>
   <tlLogic id="1366801194" offset="0" programID="0" type="static"/>
   <tlLogic id="1366801200" offset="0" programID="0" type="static">
      <phase duration="25.4206758095" state="Gr"/>
      <phase duration="4.37007424032" state="yr"/>
      <phase duration="25.4206758095" state="rG"/>
      <phase duration="4.37007424032" state="ry"/>
   </tlLogic>
   <tlLogic id="1366801217" offset="0" programID="0" type="static">
      <phase duration="23.0527421807" state="G"/>
      <phase duration="5.77612778373" state="y"/>
   </tlLogic>
   <tlLogic id="1366801221" offset="0" programID="0" type="static">
      <phase duration="11.0211989963" state="Gr"/>
      <phase duration="6.07903941323" state="yr"/>
      <phase duration="11.0211989963" state="rG"/>
      <phase duration="6.07903941323" state="ry"/>
   </tlLogic>
   <tlLogic id="1492679675" offset="0" programID="0" type="static">
      <phase duration="14.6939068227" state="Gr"/>
      <phase duration="5.92747966628" state="yr"/>
      <phase duration="14.6939068227" state="rG"/>
      <phase duration="5.92747966628" state="ry"/>
   </tlLogic>
   <tlLogic id="1492679678" offset="0" programID="0" type="static">
      <phase duration="21.2506215062" state="Gr"/>
      <phase duration="1.30868440216" state="yr"/>
      <phase duration="21.2506215062" state="rG"/>
      <phase duration="1.30868440216" state="ry"/>
   </tlLogic>
   <tlLogic id="1492679681" offset="0" programID="0" type="static">
      <phase duration="36.7247992897" state="G"/>
      <phase duration="4.31569355985" state="y"/>
   </tlLogic>
   <tlLogic id="1492679714" offset="0" programID="0" type="static">
      <phase duration="29.201231169" state="Gr"/>
      <phase duration="8.82607996836" state="yr"/>
      <phase duration="29.201231169" state="rG"/>
      <phase duration="8.82607996836" state="ry"/>
   </tlLogic>
   <tlLogic id="1492679718" offset="0" programID="0" type="static"/>
   <tlLogic id="1492679729" offset="0" programID="0" type="static">
      <phase duration="20.8595099574" state="G"/>
      <phase duration="4.24345132144" state="y"/>
   </tlLogic>