<?xml version="1.0" ?>
<tlLogics>
   <tlLogic id="1000099468" offset="0" programID="0" type="static">
      <phase duration="17.3499000072" state="G"/>
      <phase duration="8.44542234739" state="y"/>
   </tlLogic>
   <tlLogic id="1000099553" offset="0" programID="0" type="static">
      <phase duration="14.5821188613" state="Gr"/>
      <phase duration="4.85279168357" state="yr"/>
      <phase duration="14.5821188613" state="rG"/>
      <phase duration="4.85279168357" state="ry"/>
   </tlLogic>
   <tlLogic id="1000099591" offset="0" programID="0" type="static">
      <phase duration="6.97621629177" state="GGrr"/>
      <phase duration="8.55937945897" state="yyrr"/>
      <phase duration="6.97621629177" state="rrGG"/>
      <phase duration="8.55937945897" state="rryy"/>
   </tlLogic>
   <tlLogic id="1000099724" offset="0" programID="0" type="static">
      <phase duration="11.4436135468" state="Grrr"/>
      <phase duration="6.57039265608" state="yrrr"/>
      <phase duration="11.4436135468" state="rGGG"/>
      <phase duration="6.57039265608" state="ryyy"/>
   </tlLogic>
   <tlLogic id="1000099741" offset="0" programID="0" type="static">
      <phase duration="38.8592868869" state="GGrr"/>
      <phase duration="7.26866349918" state="yyrr"/>
      <phase duration="38.8592868869" state="rrGG"/>
      <phase duration="7.26866349918" state="rryy"/>
   </tlLogic>
   <tlLogic id="1012321567" offset="0" programID="0" type="static">
      <phase duration="12.0091233543" state="Gr"/>
      <phase duration="5.26955658793" state="yr"/>
      <phase duration="12.0091233543" state="rG"/>
      <phase duration="5.26955658793" state="ry"/>
   </tlLogic>
   <tlLogic id="1012321573" offset="0" programID="0" type="static">
      <phase duration="30.4684420405" state="Gr"/>
      <phase duration="9.30509613416" state="yr"/>
      <phase duration="30.4684420405" state="rG"/>
      <phase duration="9.30509613416" state="ry"/>
   </tlLogic>
   <tlLogic id="1012321580" offset="0" programID="0" type="static">
      <phase duration="32.1757371215" state="Gr"/>
      <phase duration="8.37325447795" state="yr"/>
      <phase duration="32.1757371215" state="rG"/>
      <phase duration="8.37325447795" state="ry"/>
   </tlLogic>
   <tlLogic id="1012326820" offset="0" programID="0" type="static">
      <phase duration="21.5929082889" state="G"/>
      <phase duration="6.88975418507" state="y"/>
   </tlLogic>
   <tlLogic id="1028832186" offset="0" programID="0" type="static"/>
   <tlLogic id="1028832536" offset="0" programID="0" type="static"/>
   <tlLogic id="1037290822" offset="0" programID="0" type="static">
      <phase duration="12.4451558721" state="GGrr"/>
      <phase duration="3.21742202301" state="yyrr"/>
      <phase duration="12.4451558721" state="rrGG"/>
      <phase duration="3.21742202301" state="rryy"/>
   </tlLogic>
   <tlLogic id="1037290863" offset="0" programID="0" type="static">
      <phase duration="25.644605925" state="GGrr"/>
      <phase duration="7.63773030427" state="yyrr"/>
      <phase duration="25.644605925" state="rrGG"/>
      <phase duration="7.63773030427" state="rryy"/>
   </tlLogic>
   <tlLogic id="1037290889" offset="0" programID="0" type="static">
      <phase duration="14.634167965" state="GGrr"/>
      <phase duration="5.95142340402" state="yyrr"/>
      <phase duration="14.634167965" state="rrGG"/>
      <phase duration="5.95142340402" state="rryy"/>
   </tlLogic>
   <tlLogic id="1037290915" offset="0" programID="0" type="static">
      <phase duration="26.5203453911" state="GGrrr"/>
      <phase duration="6.07883132261" state="yyrrr"/>
      <phase duration="26.5203453911" state="rrGGG"/>
      <phase duration="6.07883132261" state="rryyy"/>
   </tlLogic>
   <tlLogic id="1040964328" offset="0" programID="0" type="static">
      <phase duration="10.2625236102" state="Gr"/>
      <phase duration="9.33618324477" state="yr"/>
      <phase duration="10.2625236102" state="rG"/>
      <phase duration="9.33618324477" state="ry"/>
   </tlLogic>
   <tlLogic id="1045044692" offset="0" programID="0" type="static">
      <phase duration="21.868377271" state="Gr"/>
      <phase duration="4.4297061461" state="yr"/>
      <phase duration="21.868377271" state="rG"/>
      <phase duration="4.4297061461" state="ry"/>
   </tlLogic>
   <tlLogic id="1045044715" offset="0" programID="0" type="static">
      <phase duration="17.7821927346" state="Gr"/>
      <phase duration="9.46777992635" state="yr"/>
      <phase duration="17.7821927346" state="rG"/>
      <phase duration="9.46777992635" state="ry"/>
   </tlLogic>
   <tlLogic id="1045044750" offset="0" programID="0" type="static">
      <phase duration="37.6333012828" state="Gr"/>
      <phase duration="7.05642917722" state="yr"/>
      <phase duration="37.6333012828" state="rG"/>
      <phase duration="7.05642917722" state="ry"/>
   </tlLogic>
   <tlLogic id="1045044803" offset="0" programID="0" type="static">
      <phase duration="24.0546124179" state="Gr"/>
      <phase duration="5.60828265366" state="yr"/>
      <phase duration="24.0546124179" state="rG"/>
      <phase duration="5.60828265366" state="ry"/>
   </tlLogic>
   <tlLogic id="1045044863" offset="0" programID="0" type="static">
      <phase duration="11.2382487819" state="G"/>
      <phase duration="4.0415858784" state="y"/>
   </tlLogic>
   <tlLogic id="1062771951" offset="0" programID="0" type="static">
      <phase duration="31.2446213452" state="GGrr"/>
      <phase duration="8.74050901354" state="yyrr"/>
      <phase duration="31.2446213452" state="rrGG"/>
      <phase duration="8.74050901354" state="rryy"/>
   </tlLogic>
   <tlLogic id="1109589987" offset="0" programID="0" type="static">
      <phase duration="25.4032545369" state="GGrr"/>
      <phase duration="8.96439381304" state="yyrr"/>
      <phase duration="25.4032545369" state="rrGG"/>
      <phase duration="8.96439381304" state="rryy"/>
   </tlLogic>
   <tlLogic id="1125127500" offset="0" programID="0" type="static">
      <phase duration="17.1151022573" state="GG"/>
      <phase duration="4.80420085509" state="yy"/>
   </tlLogic>
   <tlLogic id="1149210260" offset="0" programID="0" type="static">
      <phase duration="23.061998508" state="Gr"/>
      <phase duration="9.53522536583" state="yr"/>
      <phase duration="23.061998508" state="rG"/>
      <phase duration="9.53522536583" state="ry"/>
   </tlLogic>
   <tlLogic id="1150667539" offset="0" programID="0" type="static">
      <phase duration="7.04532459659" state="G"/>
      <phase duration="8.94831507546" state="y"/>
   </tlLogic>
   <tlLogic id="1150667552" offset="0" programID="0" type="static">
      <phase duration="39.3273748624" state="Gr"/>
      <phase duration="4.99027696235" state="yr"/>
      <phase duration="39.3273748624" state="rG"/>
      <phase duration="4.99027696235" state="ry"/>
   </tlLogic>
   <tlLogic id="1150667586" offset="0" programID="0" type="static">
      <phase duration="9.5020183962" state="G"/>
      <phase duration="8.87669012978" state="y"/>
   </tlLogic>
   <tlLogic id="1150667604" offset="0" programID="0" type="static">
      <phase duration="17.5047985114" state="Gr"/>
      <phase duration="8.40417417247" state="yr"/>
      <phase duration="17.5047985114" state="rG"/>
      <phase duration="8.40417417247" state="ry"/>
   </tlLogic>
   <tlLogic id="1156723834" offset="0" programID="0" type="static">
      <phase duration="18.2242199199" state="G"/>
      <phase duration="6.84771335907" state="y"/>
   </tlLogic>
   <tlLogic id="1200892937" offset="0" programID="0" type="static">
      <phase duration="34.935106848" state="G"/>
      <phase duration="6.80729813562" state="y"/>
   </tlLogic>
   <tlLogic id="1201745377" offset="0" programID="0" type="static">
      <phase duration="9.9747191859" state="G"/>
      <phase duration="4.79128429533" state="y"/>
   </tlLogic>
   <tlLogic id="1211136595" offset="0" programID="0" type="static">
      <phase duration="37.2209406577" state="G"/>
      <phase duration="6.55411203043" state="y"/>
   </tlLogic>
   <tlLogic id="1220020607" offset="0" programID="0" type="static">
      <phase duration="16.4343598758" state="GGrr"/>
      <phase duration="4.43574804695" state="yyrr"/>
      <phase duration="16.4343598758" state="rrGG"/>
      <phase duration="4.43574804695" state="rryy"/>
   </tlLogic>
   <tlLogic id="1220020630" offset="0" programID="0" type="static">
      <phase duration="22.3695698047" state="Gr"/>
      <phase duration="4.88790270082" state="yr"/>
      <phase duration="22.3695698047" state="rG"/>
      <phase duration="4.88790270082" state="ry"/>
   </tlLogic>
   <tlLogic id="1220020673" offset="0" programID="0" type="static">
      <phase duration="19.3749114019" state="GGGrrrrrr"/>
      <phase duration="7.97270736943" state="yyyrrrrrr"/>
      <phase duration="19.3749114019" state="rrrGGGrrr"/>
      <phase duration="7.97270736943" state="rrryyyrrr"/>
      <phase duration="19.3749114019" state="rrrrrrGGG"/>
      <phase duration="7.97270736943" state="rrrrrryyy"/>
   </tlLogic>
   <tlLogic id="1229522509" offset="0" programID="0" type="static">
      <phase duration="7.22736087055" state="G"/>
      <phase duration="7.83416601707" state="y"/>
   </tlLogic>
   <tlLogic id="1229522554" offset="0" programID="0" type="static">
      <phase duration="26.0794799391" state="G"/>
      <phase duration="3.21408301231" state="y"/>
   </tlLogic>
   <tlLogic id="1252285082" offset="0" programID="0" type="static">
      <phase duration="12.4666614908" state="G"/>
      <phase duration="5.76294768596" state="y"/>
   </tlLogic>
   <tlLogic id="1252285093" offset="0" programID="0" type="static">
      <phase duration="28.7287170601" state="Gr"/>
      <phase duration="4.33959390697" state="yr"/>
      <phase duration="28.7287170601" state="rG"/>
      <phase duration="4.33959390697" state="ry"/>
   </tlLogic>
   <tlLogic id="1252285105" offset="0" programID="0" type="static">
      <phase duration="26.7105977121" state="G"/>
      <phase duration="9.92766178399" state="y"/>
   </tlLogic>
   <tlLogic id="1252285107" offset="0" programID="0" type="static">
      <phase duration="13.0659489871" state="G"/>
      <phase duration="5.75710079373" state="y"/>
   </tlLogic>
   <tlLogic id="1252285137" offset="0" programID="0" type="static">
      <phase duration="20.388870228" state="Gr"/>
      <phase duration="9.98586659916" state="yr"/>
      <phase duration="20.388870228" state="rG"/>
      <phase duration="9.98586659916" state="ry"/>
   </tlLogic>
   <tlLogic id="1252285138" offset="0" programID="0" type="static">
      <phase duration="10.5346317581" state="G"/>
      <phase duration="6.28097197811" state="y"/>
   </tlLogic>
   <tlLogic id="1252285140" offset="0" programID="0" type="static">
      <phase duration="27.5667737698" state="Gr"/>
      <phase duration="6.27784609475" state="yr"/>
      <phase duration="27.5667737698" state="rG"/>
      <phase duration="6.27784609475" state="ry"/>
   </tlLogic>
   <tlLogic id="1271504743" offset="0" programID="0" type="static">
      <phase duration="29.9744301021" state="G"/>
      <phase duration="3.60478164906" state="y"/>
   </tlLogic>
   <tlLogic id="1271504750" offset="0" programID="0" type="static">
      <phase duration="24.2945094345" state="G"/>
      <phase duration="3.49169427169" state="y"/>
   </tlLogic>
   <tlLogic id="1271504755" offset="0" programID="0" type="static">
      <phase duration="31.2827520739" state="GGrrr"/>
      <phase duration="6.63583465278" state="yyrrr"/>
      <phase duration="31.2827520739" state="rrGrr"/>
      <phase duration="6.63583465278" state="rryrr"/>
      <phase duration="31.2827520739" state="rrrGG"/>
      <phase duration="6.63583465278" state="rrryy"/>
   </tlLogic>
   <tlLogic id="1271504757" offset="0" programID="0" type="static">
      <phase duration="27.5702828416" state="GGrrr"/>
      <phase duration="4.95209028224" state="yyrrr"/>
      <phase duration="27.5702828416" state="rrGrr"/>
      <phase duration="4.95209028224" state="rryrr"/>
      <phase duration="27.5702828416" state="rrrGG"/>
      <phase duration="4.95209028224" state="rrryy"/>
   </tlLogic>
   <tlLogic id="1271504767" offset="0" programID="0" type="static">
      <phase duration="26.4661459807" state="G"/>
      <phase duration="5.77097838623" state="y"/>
   </tlLogic>
   <tlLogic id="1271504773" offset="0" programID="0" type="static">
      <phase duration="30.5754652139" state="GGrrr"/>
      <phase duration="6.15116318034" state="yyrrr"/>
      <phase duration="30.5754652139" state="rrGrr"/>
      <phase duration="6.15116318034" state="rryrr"/>
      <phase duration="30.5754652139" state="rrrGG"/>
      <phase duration="6.15116318034" state="rrryy"/>
   </tlLogic>
   <tlLogic id="1271504774" offset="0" programID="0" type="static">
      <phase duration="8.54839802834" state="G"/>
      <phase duration="3.14631412194" state="y"/>
   </tlLogic>
   <tlLogic id="1271504775" offset="0" programID="0" type="static">
      <phase duration="33.0292130215" state="Gr"/>
      <phase duration="3.66984642313" state="yr"/>
      <phase duration="33.0292130215" state="rG"/>
      <phase duration="3.66984642313" state="ry"/>
   </tlLogic>
   <tlLogic id="1271504778" offset="0" programID="0" type="static">
      <phase duration="35.2103551687" state="G"/>
      <phase duration="8.78856603773" state="y"/>
   </tlLogic>
   <tlLogic id="1271504797" offset="0" programID="0" type="static">
      <phase duration="31.0341576617" state="Gr"/>
      <phase duration="7.42721935933" state="yr"/>
      <phase duration="31.0341576617" state="rG"/>
      <phase duration="7.42721935933" state="ry"/>
   </tlLogic>
   <tlLogic id="1271504804" offset="0" programID="0" type="static">
      <phase duration="18.6096354139" state="Gr"/>
      <phase duration="7.94837573183" state="yr"/>
      <phase duration="18.6096354139" state="rG"/>
      <phase duration="7.94837573183" state="ry"/>
   </tlLogic>
   <tlLogic id="1271504812" offset="0" programID="0" type="static">
      <phase duration="16.7628200955" state="G"/>
      <phase duration="7.77967036857" state="y"/>
   </tlLogic>
   <tlLogic id="1271504816" offset="0" programID="0" type="static">
      <phase duration="19.3596211886" state="G"/>
      <phase duration="8.97332936543" state="y"/>
   </tlLogic>
   <tlLogic id="1271504819" offset="0" programID="0" type="static">
      <phase duration="4.18402831849" state="Gr"/>
      <phase duration="8.11443246202" state="yr"/>
      <phase duration="4.18402831849" state="rG"/>
      <phase duration="8.11443246202" state="ry"/>
   </tlLogic>
   <tlLogic id="1271504823" offset="0" programID="0" type="static">
      <phase duration="31.9392704122" state="G"/>
      <phase duration="8.8760041509" state="y"/>
   </tlLogic>
   <tlLogic id="1271504824" offset="0" programID="0" type="static">
      <phase duration="19.7962643539" state="G"/>
      <phase duration="3.53905521566" state="y"/>
   </tlLogic>
   <tlLogic id="1271504827" offset="0" programID="0" type="static">
      <phase duration="9.82488331248" state="Gr"/>
      <phase duration="6.10887695885" state="yr"/>
      <phase duration="9.82488331248" state="rG"/>
      <phase duration="6.10887695885" state="ry"/>
   </tlLogic>
   <tlLogic id="1271504828" offset="0" programID="0" type="static">
      <phase duration="21.7736217402" state="GGrrr"/>
      <phase duration="9.95657880622" state="yyrrr"/>
      <phase duration="21.7736217402" state="rrGrr"/>
      <phase duration="9.95657880622" state="rryrr"/>
      <phase duration="21.7736217402" state="rrrGG"/>
      <phase duration="9.95657880622" state="rrryy"/>
   </tlLogic>
   <tlLogic id="1271504829" offset="0" programID="0" type="static">
      <phase duration="29.8271785178" state="Gr"/>
      <phase duration="6.50454279555" state="yr"/>
      <phase duration="29.8271785178" state="rG"/>
      <phase duration="6.50454279555" state="ry"/>
   </tlLogic>
   <tlLogic id="1271504830" offset="0" programID="0" type="static">
      <phase duration="24.6484386653" state="GGrrr"/>
      <phase duration="9.00398596014" state="yyrrr"/>
      <phase duration="24.6484386653" state="rrGrr"/>
      <phase duration="9.00398596014" state="rryrr"/>
      <phase duration="24.6484386653" state="rrrGG"/>
      <phase duration="9.00398596014" state="rrryy"/>
   </tlLogic>
   <tlLogic id="1271504832" offset="0" programID="0" type="static">
      <phase duration="26.5868529138" state="Gr"/>
      <phase duration="9.97793471823" state="yr"/>
      <phase duration="26.5868529138" state="rG"/>
      <phase duration="9.97793471823" state="ry"/>
   </tlLogic>
   <tlLogic id="1271504834" offset="0" programID="0" type="static">
      <phase duration="12.6402228178" state="G"/>
      <phase duration="9.4698299844" state="y"/>
   </tlLogic>
   <tlLogic id="1271504838" offset="0" programID="0" type="static">
      <phase duration="16.4172052931" state="GGrrr"/>
      <phase duration="9.97113602837" state="yyrrr"/>
      <phase duration="16.4172052931" state="rrGGr"/>
      <phase duration="9.97113602837" state="rryyr"/>
      <phase duration="16.4172052931" state="rrrrG"/>
      <phase duration="9.97113602837" state="rrrry"/>
   </tlLogic>
   <tlLogic id="1271504843" offset="0" programID="0" type="static">
      <phase duration="14.8010467434" state="Gr"/>
      <phase duration="2.33230561821" state="yr"/>
      <phase duration="14.8010467434" state="rG"/>
      <phase duration="2.33230561821" state="ry"/>
   </tlLogic>
   <tlLogic id="1271504849" offset="0" programID="0" type="static">
      <phase duration="16.9649547694" state="GGrrr"/>
      <phase duration="3.62244932822" state="yyrrr"/>
      <phase duration="16.9649547694" state="rrGrr"/>
      <phase duration="3.62244932822" state="rryrr"/>
      <phase duration="16.9649547694" state="rrrGG"/>
      <phase duration="3.62244932822" state="rrryy"/>
   </tlLogic>
   <tlLogic id="1271504850" offset="0" programID="0" type="static">
      <phase duration="38.6402983139" state="Gr"/>
      <phase duration="4.33261999067" state="yr"/>
      <phase duration="38.6402983139" state="rG"/>
      <phase duration="4.33261999067" state="ry"/>
   </tlLogic>
   <tlLogic id="1271504858" offset="0" programID="0" type="static">
      <phase duration="37.4569157541" state="G"/>
      <phase duration="1.60630600345" state="y"/>
   </tlLogic>
   <tlLogic id="1271504861" offset="0" programID="0" type="static">
      <phase duration="26.3994039475" state="G"/>
      <phase duration="6.73020690782" state="y"/>
   </tlLogic>
   <tlLogic id="1271504863" offset="0" programID="0" type="static">
      <phase duration="7.55214068982" state="G"/>
      <phase duration="7.14024337576" state="y"/>
   </tlLogic>
   <tlLogic id="1271504868" offset="0" programID="0" type="static">
      <phase duration="11.3856369424" state="Gr"/>
      <phase duration="5.0970780866" state="yr"/>
      <phase duration="11.3856369424" state="rG"/>
      <phase duration="5.0970780866" state="ry"/>
   </tlLogic>
   <tlLogic id="1271504871" offset="0" programID="0" type="static">
      <phase duration="6.58415119898" state="GGrr"/>
      <phase duration="5.78384694373" state="yyrr"/>
      <phase duration="6.58415119898" state="rrGG"/>
      <phase duration="5.78384694373" state="rryy"/>
   </tlLogic>
   <tlLogic id="1271504873" offset="0" programID="0" type="static">
      <phase duration="15.6877579829" state="GGrrr"/>
      <phase duration="8.00531241765" state="yyrrr"/>
      <phase duration="15.6877579829" state="rrGrr"/>
      <phase duration="8.00531241765" state="rryrr"/>
      <phase duration="15.6877579829" state="rrrGG"/>
      <phase duration="8.00531241765" state="rrryy"/>
   </tlLogic>
   <tlLogic id="1271504874" offset="0" programID="0" type="static">
      <phase duration="23.9234020911" state="G"/>
      <phase duration="5.95378820964" state="y"/>
   </tlLogic>
   <tlLogic id="1271504875" offset="0" programID="0" type="static">
      <phase duration="29.7688584225" state="G"/>
      <phase duration="2.89196148928" state="y"/>
   </tlLogic>
   <tlLogic id="1271504878" offset="0" programID="0" type="static">
      <phase duration="28.1661596752" state="G"/>
      <phase duration="8.32870598324" state="y"/>
   </tlLogic>
   <tlLogic id="1271504884" offset="0" programID="0" type="static">
      <phase duration="36.9963344648" state="G"/>
      <phase duration="8.20046277895" state="y"/>
   </tlLogic>
   <tlLogic id="1271504887" offset="0" programID="0" type="static">
      <phase duration="13.1329954815" state="G"/>
      <phase duration="2.49257941967" state="y"/>
   </tlLogic>
   <tlLogic id="1271504888" offset="0" programID="0" type="static">
      <phase duration="4.57163542319" state="G"/>
      <phase duration="8.49488352456" state="y"/>
   </tlLogic>
   <tlLogic id="1271504891" offset="0" programID="0" type="static">
      <phase duration="25.4615712835" state="G"/>
      <phase duration="7.24692182733" state="y"/>
   </tlLogic>
   <tlLogic id="1271504893" offset="0" programID="0" type="static">
      <phase duration="25.9622305472" state="GGrrr"/>
      <phase duration="2.97362675459" state="yyrrr"/>
      <phase duration="25.9622305472" state="rrGrr"/>
      <phase duration="2.97362675459" state="rryrr"/>
      <phase duration="25.9622305472" state="rrrGG"/>
      <phase duration="2.97362675459" state="rrryy"/>
   </tlLogic>
   <tlLogic id="1271504898" offset="0" programID="0" type="static">
      <phase duration="28.5738390092" state="Gr"/>
      <phase duration="7.91430666827" state="yr"/>
      <phase duration="28.5738390092" state="rG"/>
      <phase duration="7.91430666827" state="ry"/>
   </tlLogic>
   <tlLogic id="1271504899" offset="0" programID="0" type="static">
      <phase duration="24.6771439304" state="G"/>
      <phase duration="8.15766350315" state="y"/>
   </tlLogic>
   <tlLogic id="1271504901" offset="0" programID="0" type="static">
      <phase duration="23.1870813736" state="GGrrr"/>
      <phase duration="4.64032922572" state="yyrrr"/>
      <phase duration="23.1870813736" state="rrGrr"/>
      <phase duration="4.64032922572" state="rryrr"/>
      <phase duration="23.1870813736" state="rrrGG"/>
      <phase duration="4.64032922572" state="rrryy"/>
   </tlLogic>
   <tlLogic id="1271504902" offset="0" programID="0" type="static">
      <phase duration="25.5943596842" state="Gr"/>
      <phase duration="7.72639182851" state="yr"/>
      <phase duration="25.5943596842" state="rG"/>
      <phase duration="7.72639182851" state="ry"/>
   </tlLogic>
   <tlLogic id="1271504905" offset="0" programID="0" type="static">
      <phase duration="37.2484100748" state="G"/>
      <phase duration="9.29287873381" state="y"/>
   </tlLogic>
   <tlLogic id="1271504907" offset="0" programID="0" type="static">
      <phase duration="32.3669342662" state="G"/>
      <phase duration="6.45536013525" state="y"/>
   </tlLogic>
   <tlLogic id="1271504910" offset="0" programID="0" type="static">
      <phase duration="20.5239708751" state="Gr"/>
      <phase duration="6.99359093835" state="yr"/>
      <phase duration="20.5239708751" state="rG"/>
      <phase duration="6.99359093835" state="ry"/>
   </tlLogic>
   <tlLogic id="1299369677" offset="0" programID="0" type="static">
      <phase duration="20.6894610676" state="G"/>
      <phase duration="6.06311795689" state="y"/>
   </tlLogic>
   <tlLogic id="1299369678" offset="0" programID="0" type="static">
      <phase duration="20.454987909" state="G"/>
      <phase duration="7.64493090755" state="y"/>
   </tlLogic>
   <tlLogic id="1299369679" offset="0" programID="0" type="static">
      <phase duration="7.45325325915" state="G"/>
      <phase duration="3.9753849003" state="y"/>
   </tlLogic>
   <tlLogic id="1299369684" offset="0" programID="0" type="static">
      <phase duration="16.985348874" state="G"/>
      <phase duration="6.09283151537" state="y"/>
   </tlLogic>
   <tlLogic id="1299369686" offset="0" programID="0" type="static">
      <phase duration="30.3539388384" state="G"/>
      <phase duration="4.29216626786" state="y"/>
   </tlLogic>
   <tlLogic id="1299369699" offset="0" programID="0" type="static">
      <phase duration="15.1539956251" state="G"/>
      <phase duration="7.99075099494" state="y"/>
   </tlLogic>
   <tlLogic id="1312440651" offset="0" programID="0" type="static">
      <phase duration="36.0854442138" state="G"/>
      <phase duration="3.64213327674" state="y"/>
   </tlLogic>
   <tlLogic id="1312440659" offset="0" programID="0" type="static">
      <phase duration="27.8593665863" state="GGrrr"/>
      <phase duration="5.89688677967" state="yyrrr"/>
      <phase duration="27.8593665863" state="rrGrr"/>
      <phase duration="5.89688677967" state="rryrr"/>
      <phase duration="27.8593665863" state="rrrGG"/>
      <phase duration="5.89688677967" state="rrryy"/>
   </tlLogic>
   <tlLogic id="1312812204" offset="0" programID="0" type="static">
      <phase duration="29.9208384186" state="G"/>
      <phase duration="5.74106520136" state="y"/>
   </tlLogic>
   <tlLogic id="1353566368" offset="0" programID="0" type="static">
      <phase duration="29.5836375847" state="G"/>
      <phase duration="8.23270976033" state="y"/>
   </tlLogic>
   <tlLogic id="1366801174" offset="0" programID="0" type="static">
      <phase duration="7.14327962926" state="G"/>
      <phase duration="4.04749981819" state="y"/>
   </tlLogic>
   <tlLogic id="1366801190" offset="0" programID="0" type="static"/>
   <tlLogic id="1366801194" offset="0" programID="0" type="static"/>
   <tlLogic id="1366801200" offset="0" programID="0" type="static">
      <phase duration="18.1039169345" state="Gr"/>
      <phase duration="6.9165912735" state="yr"/>
      <phase duration="18.1039169345" state="rG"/>
      <phase duration="6.9165912735" state="ry"/>
   </tlLogic>
   <tlLogic id="1366801217" offset="0" programID="0" type="static">
      <phase duration="24.4125950527" state="G"/>
      <phase duration="5.98030010905" state="y"/>
   </tlLogic>
   <tlLogic id="1492679675" offset="0" programID="0" type="static">
      <phase duration="16.9963090704" state="Gr"/>
      <phase duration="4.36126744075" state="yr"/>
      <phase duration="16.9963090704" state="rG"/>
      <phase duration="4.36126744075" state="ry"/>
   </tlLogic>
   <tlLogic id="1492679681" offset="0" programID="0" type="static">
      <phase duration="21.0622536787" state="G"/>
      <phase duration="4.59633410996" state="y"/>
   </tlLogic>
   <tlLogic id="1492679696" offset="0" programID="0" type="static">
      <phase duration="34.556033804" state="Gr"/>
      <phase duration="8.86355760572" state="yr"/>
      <phase duration="34.556033804" state="rG"/>
      <phase duration="8.86355760572" state="ry"/>
   </tlLogic>
   <tlLogic id="1492679718" offset="0" programID="0" type="static"/>
   <tlLogic id="1492679729" offset="0" programID="0" type="static">
      <phase duration="7.45309170091" state="G"/>
      <phase duration="6.20730610429" state="y"/>
   </tlLogic>
   <tlLogic id="1492679741" offset="0" programID="0" type="static">
      <phase duration="26.4803385318" state="G"/>
      <phase duration="7.37354131825" state="y"/>
   </tlLogic>
   <tlLogic id="1492679749" offset="0" programID="0" type="static">
      <phase duration="28.76388661" state="GGrrr"/>
      <phase duration="8.61367667404" state="yyrrr"/>
      <phase duration="28.76388661" state="rrGGr"/>
      <phase duration="8.61367667404" state="rryyr"/>
      <phase duration="28.76388661" state="rrrrG"/>
      <phase duration="8.61367667404" state="rrrry"/>
   </tlLogic>
   <tlLogic id="1492679753" offset="0" programID="0" type="static">
      <phase duration="30.4655597737" state="G"/>
      <phase duration="9.11903549973" state="y"/>
   </tlLogic>
   <tlLogic id="1492679755" offset="0" programID="0" type="static">
      <phase duration="11.9176912078" state="G"/>
      <phase duration="6.24528183182" state="y"/>
   </tlLogic>
   <tlLogic id="1492729095" offset="0" programID="0" type="static">
      <phase duration="28.4829503288" state="G"/>
      <phase duration="8.61389383934" state="y"/>
   </tlLogic>
   <tlLogic id="1492802030" offset="0" programID="0" type="static">
      <phase duration="35.4232333241" state="GGrr"/>
      <phase duration="5.96869863771" state="yyrr"/>
      <phase duration="35.4232333241" state="rrGG"/>
      <phase duration="5.96869863771" state="rryy"/>
   </tlLogic>
   <tlLogic id="1492802032" offset="0" programID="0" type="static">
      <phase duration="26.1008394226" state="G"/>
      <phase duration="9.52345758646" state="y"/>
   </tlLogic>
   <tlLogic id="1492802034" offset="0" programID="0" type="static">
      <phase duration="5.461681181" state="G"/>
      <phase duration="6.12579789772" state="y"/>
   </tlLogic>
   <tlLogic id="1492802065" offset="0" programID="0" type="static">
      <phase duration="29.8404483398" state="G"/>
      <phase duration="9.95067495276" state="y"/>
   </tlLogic>
   <tlLogic id="1492802066" offset="0" programID="0" type="static">
      <phase duration="16.1243411203" state="Gr"/>
      <phase duration="1.82283798432" state="yr"/>
      <phase duration="16.1243411203" state="rG"/>
      <phase duration="1.82283798432" state="ry"/>
   </tlLogic>
   <tlLogic id="1492802068" offset="0" programID="0" type="static">
      <phase duration="37.9560011644" state="Gr"/>
      <phase duration="6.709104787" state="yr"/>
      <phase duration="37.9560011644" state="rG"/>
      <phase duration="6.709104787" state="ry"/>
   </tlLogic>
   <tlLogic id="1492802069" offset="0" programID="0" type="static">
      <phase duration="32.2296939532" state="G"/>
      <phase duration="4.22681970363" state="y"/>
   </tlLogic>
   <tlLogic id="1492802080" offset="0" programID="0" type="static">
      <phase duration="18.4681469601" state="GGrrr"/>
      <phase duration="3.97027093214" state="yyrrr"/>