<?xml version="1.0" ?>
<tlLogics>
   <tlLogic id="1000099468" offset="0" programID="0" type="static">
      <phase duration="24.1472999895" state="G"/>
      <phase duration="6.77397997808" state="y"/>
   </tlLogic>
   <tlLogic id="1000099544" offset="0" programID="0" type="static">
      <phase duration="11.4038441204" state="GGrrr"/>
      <phase duration="8.75922706705" state="yyrrr"/>
      <phase duration="11.4038441204" state="rrGGr"/>
      <phase duration="8.75922706705" state="rryyr"/>
      <phase duration="11.4038441204" state="rrrrG"/>
      <phase duration="8.75922706705" state="rrrry"/>
   </tlLogic>
   <tlLogic id="1000099551" offset="0" programID="0" type="static">
      <phase duration="2.20110595695" state="G"/>
      <phase duration="7.70502356287" state="y"/>
   </tlLogic>
   <tlLogic id="1000099553" offset="0" programID="0" type="static">
      <phase duration="25.3814529315" state="Gr"/>
      <phase duration="2.00274638419" state="yr"/>
      <phase duration="25.3814529315" state="rG"/>
      <phase duration="2.00274638419" state="ry"/>
   </tlLogic>
   <tlLogic id="1000099576" offset="0" programID="0" type="static">
      <phase duration="22.1637209944" state="Grrrr"/>
      <phase duration="7.81992304846" state="yrrrr"/>
      <phase duration="22.1637209944" state="rGGrr"/>
      <phase duration="7.81992304846" state="ryyrr"/>
      <phase duration="22.1637209944" state="rrrGG"/>
      <phase duration="7.81992304846" state="rrryy"/>
   </tlLogic>
   <tlLogic id="1000099591" offset="0" programID="0" type="static">
      <phase duration="9.16664177881" state="GGrr"/>
      <phase duration="8.84733130374" state="yyrr"/>
      <phase duration="9.16664177881" state="rrGG"/>
      <phase duration="8.84733130374" state="rryy"/>
   </tlLogic>
   <tlLogic id="1000099607" offset="0" programID="0" type="static">
      <phase duration="35.7729698736" state="GGr"/>
      <phase duration="6.7553042463" state="yyr"/>
      <phase duration="35.7729698736" state="rrG"/>
      <phase duration="6.7553042463" state="rry"/>
   </tlLogic>
   <tlLogic id="1000099651" offset="0" programID="0" type="static">
      <phase duration="3.01571357214" state="GGrrrr"/>
      <phase duration="5.78367391105" state="yyrrrr"/>
      <phase duration="3.01571357214" state="rrGGrr"/>
      <phase duration="5.78367391105" state="rryyrr"/>
      <phase duration="3.01571357214" state="rrrrGG"/>
      <phase duration="5.78367391105" state="rrrryy"/>
   </tlLogic>
   <tlLogic id="1000099724" offset="0" programID="0" type="static">
      <phase duration="10.3530326023" state="Grrr"/>
      <phase duration="7.05787708562" state="yrrr"/>
      <phase duration="10.3530326023" state="rGGG"/>
      <phase duration="7.05787708562" state="ryyy"/>
   </tlLogic>
   <tlLogic id="1000099788" offset="0" programID="0" type="static">
      <phase duration="30.6164396292" state="GGrr"/>
      <phase duration="8.22387203153" state="yyrr"/>
      <phase duration="30.6164396292" state="rrGG"/>
      <phase duration="8.22387203153" state="rryy"/>
   </tlLogic>
   <tlLogic id="1012321580" offset="0" programID="0" type="static">
      <phase duration="39.5434583333" state="Gr"/>
      <phase duration="3.16436781994" state="yr"/>
      <phase duration="39.5434583333" state="rG"/>
      <phase duration="3.16436781994" state="ry"/>
   </tlLogic>
   <tlLogic id="1040964328" offset="0" programID="0" type="static">
      <phase duration="4.88749796398" state="Gr"/>
      <phase duration="6.20034016093" state="yr"/>
      <phase duration="4.88749796398" state="rG"/>
      <phase duration="6.20034016093" state="ry"/>
   </tlLogic>
   <tlLogic id="1045044803" offset="0" programID="0" type="static">
      <phase duration="25.0699485524" state="Gr"/>
      <phase duration="5.05674267427" state="yr"/>
      <phase duration="25.0699485524" state="rG"/>
      <phase duration="5.05674267427" state="ry"/>
   </tlLogic>
   <tlLogic id="1045044863" offset="0" programID="0" type="static">
      <phase duration="20.8527022912" state="G"/>
      <phase duration="4.75586700443" state="y"/>
   </tlLogic>
   <tlLogic id="1062771951" offset="0" programID="0" type="static">
      <phase duration="31.6869729821" state="GGrr"/>
      <phase duration="4.25874842415" state="yyrr"/>
      <phase duration="31.6869729821" state="rrGG"/>
      <phase duration="4.25874842415" state="rryy"/>
   </tlLogic>
   <tlLogic id="1062771990" offset="0" programID="0" type="static">
      <phase duration="35.571068697" state="G"/>
      <phase duration="8.58497597697" state="y"/>
   </tlLogic>
   <tlLogic id="1109589944" offset="0" programID="0" type="static">
      <phase duration="3.36489540593" state="GGGrrrrrr"/>
      <phase duration="5.60490574897" state="yyyrrrrrr"/>
      <phase duration="3.36489540593" state="rrrGGGrrr"/>
      <phase duration="5.60490574897" state="rrryyyrrr"/>
      <phase duration="3.36489540593" state="rrrrrrGGG"/>
      <phase duration="5.60490574897" state="rrrrrryyy"/>
   </tlLogic>
   <tlLogic id="1123630986" offset="0" programID="0" type="static">
      <phase duration="32.271957259" state="G"/>
      <phase duration="4.94726246322" state="y"/>
   </tlLogic>
   <tlLogic id="1125127500" offset="0" programID="0" type="static">
      <phase duration="24.2634121349" state="GG"/>
      <phase duration="9.77369601227" state="yy"/>
   </tlLogic>
   <tlLogic id="1149210260" offset="0" programID="0" type="static">
      <phase duration="6.98357609652" state="Gr"/>
      <phase duration="3.79412996012" state="yr"/>
      <phase duration="6.98357609652" state="rG"/>
      <phase duration="3.79412996012" state="ry"/>
   </tlLogic>
   <tlLogic id="1150667539" offset="0" programID="0" type="static">
      <phase duration="6.13439523902" state="G"/>
      <phase duration="7.20216932207" state="y"/>
   </tlLogic>
   <tlLogic id="1150667540" offset="0" programID="0" type="static">
      <phase duration="21.5362812114" state="G"/>
      <phase duration="4.72025127824" state="y"/>
   </tlLogic>
   <tlLogic id="1150667555" offset="0" programID="0" type="static">
      <phase duration="31.0109253608" state="Gr"/>
      <phase duration="8.64110873034" state="yr"/>
      <phase duration="31.0109253608" state="rG"/>
      <phase duration="8.64110873034" state="ry"/>
   </tlLogic>
   <tlLogic id="1150667558" offset="0" programID="0" type="static">
      <phase duration="2.55615324692" state="Gr"/>
      <phase duration="3.68030446402" state="yr"/>
      <phase duration="2.55615324692" state="rG"/>
      <phase duration="3.68030446402" state="ry"/>
   </tlLogic>
   <tlLogic id="1150667560" offset="0" programID="0" type="static">
      <phase duration="29.1164428724" state="G"/>
      <phase duration="2.02614513784" state="y"/>
   </tlLogic>
   <tlLogic id="1150667568" offset="0" programID="0" type="static"/>
   <tlLogic id="1150667586" offset="0" programID="0" type="static">
      <phase duration="2.77682905689" state="G"/>
      <phase duration="6.49295005793" state="y"/>
   </tlLogic>
   <tlLogic id="1150667603" offset="0" programID="0" type="static">
      <phase duration="29.948554377" state="Gr"/>
      <phase duration="6.46469147249" state="yr"/>
      <phase duration="29.948554377" state="rG"/>
      <phase duration="6.46469147249" state="ry"/>
   </tlLogic>
   <tlLogic id="1150667604" offset="0" programID="0" type="static">
      <phase duration="6.81191030143" state="Gr"/>
      <phase duration="6.04096139905" state="yr"/>
      <phase duration="6.81191030143" state="rG"/>
      <phase duration="6.04096139905" state="ry"/>
   </tlLogic>
   <tlLogic id="1150667608" offset="0" programID="0" type="static">
      <phase duration="25.1877781886" state="Gr"/>
      <phase duration="9.26500732452" state="yr"/>
      <phase duration="25.1877781886" state="rG"/>
      <phase duration="9.26500732452" state="ry"/>
   </tlLogic>
   <tlLogic id="1150667622" offset="0" programID="0" type="static">
      <phase duration="24.0249900596" state="G"/>
      <phase duration="9.4104673968" state="y"/>
   </tlLogic>
   <tlLogic id="1156723839" offset="0" programID="0" type="static">
      <phase duration="22.4093148662" state="Gr"/>
      <phase duration="9.88959509599" state="yr"/>
      <phase duration="22.4093148662" state="rG"/>
      <phase duration="9.88959509599" state="ry"/>
   </tlLogic>
   <tlLogic id="1200892960" offset="0" programID="0" type="static">
      <phase duration="23.1647856466" state="Gr"/>
      <phase duration="4.71107129154" state="yr"/>
      <phase duration="23.1647856466" state="rG"/>
      <phase duration="4.71107129154" state="ry"/>
   </tlLogic>
   <tlLogic id="1201745377" offset="0" programID="0" type="static">
      <phase duration="22.9616178572" state="G"/>
      <phase duration="8.93297466815" state="y"/>
   </tlLogic>
   <tlLogic id="1201745399" offset="0" programID="0" type="static"/>
   <tlLogic id="1211136497" offset="0" programID="0" type="static">
      <phase duration="22.5977925675" state="GGrr"/>
      <phase duration="6.56899773141" state="yyrr"/>
      <phase duration="22.5977925675" state="rrGG"/>
      <phase duration="6.56899773141" state="rryy"/>
   </tlLogic>
   <tlLogic id="1211136595" offset="0" programID="0" type="static">
      <phase duration="35.4864484198" state="G"/>
      <phase duration="7.87008567811" state="y"/>
   </tlLogic>
   <tlLogic id="1220020505" offset="0" programID="0" type="static">
      <phase duration="21.3312001024" state="G"/>
      <phase duration="2.00096808174" state="y"/>
   </tlLogic>
   <tlLogic id="1220020545" offset="0" programID="0" type="static">
      <phase duration="20.0498116289" state="GGrrr"/>
      <phase duration="7.40752118951" state="yyrrr"/>
      <phase duration="20.0498116289" state="rrGrr"/>
      <phase duration="7.40752118951" state="rryrr"/>
      <phase duration="20.0498116289" state="rrrGG"/>
      <phase duration="7.40752118951" state="rrryy"/>
   </tlLogic>
   <tlLogic id="1220020592" offset="0" programID="0" type="static">
      <phase duration="33.5128007156" state="Gr"/>
      <phase duration="4.02016487828" state="yr"/>
      <phase duration="33.5128007156" state="rG"/>
      <phase duration="4.02016487828" state="ry"/>
   </tlLogic>
   <tlLogic id="1220020656" offset="0" programID="0" type="static">
      <phase duration="16.5762315743" state="GGrr"/>
      <phase duration="6.76833192452" state="yyrr"/>
      <phase duration="16.5762315743" state="rrGG"/>
      <phase duration="6.76833192452" state="rryy"/>
   </tlLogic>
   <tlLogic id="1220020673" offset="0" programID="0" type="static">
      <phase duration="20.6549922687" state="GGGrrrrrr"/>
      <phase duration="7.43026877128" state="yyyrrrrrr"/>
      <phase duration="20.6549922687" state="rrrGGGrrr"/>
      <phase duration="7.43026877128" state="rrryyyrrr"/>
      <phase duration="20.6549922687" state="rrrrrrGGG"/>
      <phase duration="7.43026877128" state="rrrrrryyy"/>
   </tlLogic>
   <tlLogic id="1220020679" offset="0" programID="0" type="static">
      <phase duration="28.5794166875" state="GGrr"/>
      <phase duration="7.54764176209" state="yyrr"/>
      <phase duration="28.5794166875" state="rrGG"/>
      <phase duration="7.54764176209" state="rryy"/>
   </tlLogic>
   <tlLogic id="1229522552" offset="0" programID="0" type="static">
      <phase duration="11.4594070158" state="G"/>
      <phase duration="8.553385528" state="y"/>
   </tlLogic>
   <tlLogic id="1229522554" offset="0" programID="0" type="static">
      <phase duration="10.2186089186" state="G"/>
      <phase duration="6.87089263077" state="y"/>
   </tlLogic>
   <tlLogic id="1252285082" offset="0" programID="0" type="static">
      <phase duration="27.3976910975" state="G"/>
      <phase duration="4.01711876415" state="y"/>
   </tlLogic>
   <tlLogic id="1252285087" offset="0" programID="0" type="static"/>
   <tlLogic id="1252285093" offset="0" programID="0" type="static">
      <phase duration="19.8995024006" state="Gr"/>
      <phase duration="6.07889222895" state="yr"/>
      <phase duration="19.8995024006" state="rG"/>
      <phase duration="6.07889222895" state="ry"/>
   </tlLogic>
   <tlLogic id="1252285107" offset="0" programID="0" type="static">
      <phase duration="20.4920934119" state="G"/>
      <phase duration="5.06629120154" state="y"/>
   </tlLogic>
   <tlLogic id="1252285133" offset="0" programID="0" type="static">
      <phase duration="23.1698821754" state="Gr"/>
      <phase duration="4.02572466564" state="yr"/>
      <phase duration="23.1698821754" state="rG"/>
      <phase duration="4.02572466564" state="ry"/>
   </tlLogic>
   <tlLogic id="1252285137" offset="0" programID="0" type="static">
      <phase duration="11.5674411944" state="Gr"/>
      <phase duration="9.2994491871" state="yr"/>
      <phase duration="11.5674411944" state="rG"/>
      <phase duration="9.2994491871" state="ry"/>
   </tlLogic>
   <tlLogic id="1264255381" offset="0" programID="0" type="static">
      <phase duration="13.3320628395" state="GGGrrrrrr"/>
      <phase duration="8.32168029272" state="yyyrrrrrr"/>
      <phase duration="13.3320628395" state="rrrGGGrrr"/>
      <phase duration="8.32168029272" state="rrryyyrrr"/>
      <phase duration="13.3320628395" state="rrrrrrGGG"/>
      <phase duration="8.32168029272" state="rrrrrryyy"/>
   </tlLogic>
   <tlLogic id="1271504748" offset="0" programID="0" type="static">
      <phase duration="10.1636503762" state="Gr"/>
      <phase duration="9.94115426914" state="yr"/>
      <phase duration="10.1636503762" state="rG"/>
      <phase duration="9.94115426914" state="ry"/>
   </tlLogic>
   <tlLogic id="1271504750" offset="0" programID="0" type="static">
      <phase duration="10.6647457225" state="G"/>
      <phase duration="5.54147871537" state="y"/>
   </tlLogic>
   <tlLogic id="1271504755" offset="0" programID="0" type="static">
      <phase duration="16.5622249412" state="GGrrr"/>
      <phase duration="2.32906489556" state="yyrrr"/>
      <phase duration="16.5622249412" state="rrGrr"/>
      <phase duration="2.32906489556" state="rryrr"/>
      <phase duration="16.5622249412" state="rrrGG"/>
      <phase duration="2.32906489556" state="rrryy"/>
   </tlLogic>
   <tlLogic id="1271504757" offset="0" programID="0" type="static">
      <phase duration="19.230049239" state="GGrrr"/>
      <phase duration="6.95361760719" state="yyrrr"/>
      <phase duration="19.230049239" state="rrGrr"/>
      <phase duration="6.95361760719" state="rryrr"/>
      <phase duration="19.230049239" state="rrrGG"/>
      <phase duration="6.95361760719" state="rrryy"/>
   </tlLogic>
   <tlLogic id="1271504762" offset="0" programID="0" type="static">
      <phase duration="17.7387497005" state="G"/>
      <phase duration="7.31086074729" state="y"/>
   </tlLogic>
   <tlLogic id="1271504764" offset="0" programID="0" type="static">
      <phase duration="26.0553935397" state="G"/>
      <phase duration="6.07260232861" state="y"/>
   </tlLogic>
   <tlLogic id="1271504774" offset="0" programID="0" type="static">
      <phase duration="16.2261976514" state="G"/>
      <phase duration="8.20651754839" state="y"/>
   </tlLogic>
   <tlLogic id="1271504778" offset="0" programID="0" type="static">
      <phase duration="17.7610546252" state="G"/>
      <phase duration="2.12881912928" state="y"/>
   </tlLogic>
   <tlLogic id="1271504783" offset="0" programID="0" type="static">
      <phase duration="24.3542842602" state="Gr"/>
      <phase duration="8.2281140165" state="yr"/>
      <phase duration="24.3542842602" state="rG"/>
      <phase duration="8.2281140165" state="ry"/>
   </tlLogic>
   <tlLogic id="1271504788" offset="0" programID="0" type="static">
      <phase duration="17.5924875192" state="GGrrr"/>
      <phase duration="6.47031476354" state="yyrrr"/>
      <phase duration="17.5924875192" state="rrGGG"/>
      <phase duration="6.47031476354" state="rryyy"/>
   </tlLogic>
   <tlLogic id="1271504795" offset="0" programID="0" type="static">
      <phase duration="25.9007276944" state="G"/>
      <phase duration="7.27841972336" state="y"/>
   </tlLogic>
   <tlLogic id="1271504801" offset="0" programID="0" type="static">
      <phase duration="12.6537270213" state="G"/>
      <phase duration="9.27172905469" state="y"/>
   </tlLogic>
   <tlLogic id="1271504804" offset="0" programID="0" type="static">
      <phase duration="23.6896722405" state="Gr"/>
      <phase duration="6.67179483944" state="yr"/>
      <phase duration="23.6896722405" state="rG"/>
      <phase duration="6.67179483944" state="ry"/>
   </tlLogic>
   <tlLogic id="1271504812" offset="0" programID="0" type="static">
      <phase duration="19.5971876328" state="G"/>
      <phase duration="8.30116137304" state="y"/>
   </tlLogic>
   <tlLogic id="1271504817" offset="0" programID="0" type="static">
      <phase duration="28.6002384443" state="G"/>
      <phase duration="4.04974826652" state="y"/>
   </tlLogic>
   <tlLogic id="1271504819" offset="0" programID="0" type="static">
      <phase duration="7.36025469807" state="Gr"/>
      <phase duration="9.00112874513" state="yr"/>
      <phase duration="7.36025469807" state="rG"/>
      <phase duration="9.00112874513" state="ry"/>
   </tlLogic>
   <tlLogic id="1271504822" offset="0" programID="0" type="static">
      <phase duration="27.2070945884" state="G"/>
      <phase duration="7.59351963415" state="y"/>
   </tlLogic>
   <tlLogic id="1271504824" offset="0" programID="0" type="static">
      <phase duration="3.69113271584" state="G"/>
      <phase duration="4.16449763638" state="y"/>
   </tlLogic>
   <tlLogic id="1271504829" offset="0" programID="0" type="static">
      <phase duration="11.3787473565" state="Gr"/>
      <phase duration="4.90450976745" state="yr"/>
      <phase duration="11.3787473565" state="rG"/>
      <phase duration="4.90450976745" state="ry"/>
   </tlLogic>
   <tlLogic id="1271504830" offset="0" programID="0" type="static">
      <phase duration="39.5726494779" state="GGrrr"/>
      <phase duration="8.49144554534" state="yyrrr"/>
      <phase duration="39.5726494779" state="rrGrr"/>
      <phase duration="8.49144554534" state="rryrr"/>
      <phase duration="39.5726494779" state="rrrGG"/>
      <phase duration="8.49144554534" state="rrryy"/>
   </tlLogic>
   <tlLogic id="1271504831" offset="0" programID="0" type="static">
      <phase duration="12.0827601384" state="G"/>
      <phase duration="2.12950135138" state="y"/>
   </tlLogic>
   <tlLogic id="1271504832" offset="0" programID="0" type="static">
      <phase duration="15.4484996195" state="Gr"/>
      <phase duration="7.6666587932" state="yr"/>
      <phase duration="15.4484996195" state="rG"/>
      <phase duration="7.6666587932" state="ry"/>
   </tlLogic>
   <tlLogic id="1271504834" offset="0" programID="0" type="static">
      <phase duration="13.5826049855" state="G"/>
      <phase duration="9.77227618802" state="y"/>
   </tlLogic>
   <tlLogic id="1271504842" offset="0" programID="0" type="static">
      <phase duration="24.0366762753" state="G"/>
      <phase duration="8.58770575083" state="y"/>
   </tlLogic>
   <tlLogic id="1271504844" offset="0" programID="0" type="static">
      <phase duration="11.1935275198" state="G"/>
      <phase duration="8.61030514322" state="y"/>
   </tlLogic>
   <tlLogic id="1271504845" offset="0" programID="0" type="static">
      <phase duration="16.351104513" state="G"/>
      <phase duration="6.70999408437" state="y"/>
   </tlLogic>
   <tlLogic id="1271504861" offset="0" programID="0" type="static">
      <phase duration="5.81049985163" state="G"/>
      <phase duration="8.39554738429" state="y"/>
   </tlLogic>
   <tlLogic id="1271504864" offset="0" programID="0" type="static">
      <phase duration="17.293672904" state="G"/>
      <phase duration="6.54012721024" state="y"/>
   </tlLogic>
   <tlLogic id="1271504867" offset="0" programID="0" type="static">
      <phase duration="22.1522040712" state="G"/>
      <phase duration="9.38096048332" state="y"/>
   </tlLogic>
   <tlLogic id="1271504871" offset="0" programID="0" type="static">
      <phase duration="5.42127530737" state="GGrr"/>
      <phase duration="7.29611908551" state="yyrr"/>
      <phase duration="5.42127530737" state="rrGG"/>
      <phase duration="7.29611908551" state="rryy"/>
   </tlLogic>
   <tlLogic id="1271504872" offset="0" programID="0" type="static">
      <phase duration="25.1100834112" state="G"/>
      <phase duration="5.07426480365" state="y"/>
   </tlLogic>
   <tlLogic id="1271504873" offset="0" programID="0" type="static">
      <phase duration="14.494598017" state="GGrrr"/>
      <phase duration="3.55876777505" state="yyrrr"/>
      <phase duration="14.494598017" state="rrGrr"/>
      <phase duration="3.55876777505" state="rryrr"/>
      <phase duration="14.494598017" state="rrrGG"/>
      <phase duration="3.55876777505" state="rrryy"/>
   </tlLogic>
   <tlLogic id="1271504874" offset="0" programID="0" type="static">
      <phase duration="8.33163418295" state="G"/>
      <phase duration="8.58667920537" state="y"/>
   </tlLogic>
   <tlLogic id="1271504875" offset="0" programID="0" type="static">
      <phase duration="7.66801755366" state="G"/>
      <phase duration="8.1274259667" state="y"/>
   </tlLogic>
   <tlLogic id="1271504878" offset="0" programID="0" type="static">
      <phase duration="20.6738139044" state="G"/>
      <phase duration="3.53646179351" state="y"/>
   </tlLogic>
   <tlLogic id="1271504881" offset="0" programID="0" type="static">
      <phase duration="20.9923528068" state="GGrrr"/>
      <phase duration="7.25843663849" state="yyrrr"/>
      <phase duration="20.9923528068" state="rrGrr"/>
      <phase duration="7.25843663849" state="rryrr"/>
      <phase duration="20.9923528068" state="rrrGG"/>
      <phase duration="7.25843663849" state="rrryy"/>
   </tlLogic>
   <tlLogic id="1271504883" offset="0" programID="0" type="static">
      <phase duration="20.0211592029" state="GGrrr"/>
      <phase duration="2.48013302051" state="yyrrr"/>
      <phase duration="20.0211592029" state="rrGrr"/>
      <phase duration="2.48013302051" state="rryrr"/>
      <phase duration="20.0211592029" state="rrrGG"/>
      <phase duration="2.48013302051" state="rrryy"/>
   </tlLogic>
   <tlLogic id="1271504889" offset="0" programID="0" type="static">
      <phase duration="29.4368495488" state="Gr"/>
      <phase duration="8.75977765019" state="yr"/>
      <phase duration="29.4368495488" state="rG"/>
      <phase duration="8.75977765019" state="ry"/>
   </tlLogic>
   <tlLogic id="1271504891" offset="0" programID="0" type="static">
      <phase duration="30.6718078987" state="G"/>
      <phase duration="9.3210612268" state="y"/>
   </tlLogic>
   <tlLogic id="1271504893" offset="0" programID="0" type="static">
      <phase duration="31.8018942369" state="GGrrr"/>
      <phase duration="5.81404322808" state="yyrrr"/>
      <phase duration="31.8018942369" state="rrGrr"/>
      <phase duration="5.81404322808" state="rryrr"/>
      <phase duration="31.8018942369" state="rrrGG"/>
      <phase duration="5.81404322808" state="rrryy"/>
   </tlLogic>
   <tlLogic id="1271504898" offset="0" programID="0" type="static">
      <phase duration="26.9244341993" state="Gr"/>
      <phase duration="2.08236034281" state="yr"/>
      <phase duration="26.9244341993" state="rG"/>
      <phase duration="2.08236034281" state="ry"/>
   </tlLogic>
   <tlLogic id="1271504899" offset="0" programID="0" type="static">
      <phase duration="16.9446800282" state="G"/>
      <phase duration="5.00798245798" state="y"/>
   </tlLogic>
   <tlLogic id="1271504901" offset="0" programID="0" type="static">
      <phase duration="20.621493888" state="GGrrr"/>
      <phase duration="8.40479656084" state="yyrrr"/>
      <phase duration="20.621493888" state="rrGrr"/>
      <phase duration="8.40479656084" state="rryrr"/>
      <phase duration="20.621493888" state="rrrGG"/>
      <phase duration="8.40479656084" state="rrryy"/>
   </tlLogic>
   <tlLogic id="1271504904" offset="0" programID="0" type="static">
      <phase duration="25.0152840648" state="Grr"/>
      <phase duration="9.8500948416" state="yrr"/>
      <phase duration="25.0152840648" state="rGG"/>
      <phase duration="9.8500948416" state="ryy"/>
   </tlLogic>
   <tlLogic id="1271504907" offset="0" programID="0" type="static">
      <phase duration="38.4860518511" state="G"/>
      <phase duration="8.86489262647" state="y"/>
   </tlLogic>
   <tlLogic id="1271504908" offset="0" programID="0" type="static">
      <phase duration="24.393856705" state="G"/>
      <phase duration="6.6345084096" state="y"/>
   </tlLogic>
   <tlLogic id="1271504911" offset="0" programID="0" type="static">
      <phase duration="8.00866973868" state="G"/>
      <phase duration="8.92640042211" state="y"/>
   </tlLogic>
   <tlLogic id="1271504913" offset="0" programID="0" type="static">
      <phase duration="28.7941411312" state="GGrrr"/>
      <phase duration="8.88446348526" state="yyrrr"/>
      <phase duration="28.7941411312" state="rrGGr"/>
      <phase duration="8.88446348526" state="rryyr"/>
      <phase duration="28.7941411312" state="rrrrG"/>
      <phase duration="8.88446348526" state="rrrry"/>
   </tlLogic>
   <tlLogic id="1271504914" offset="0" programID="0" type="static">
      <phase duration="10.2774487138" state="G"/>
      <phase duration="8.41381928317" state="y"/>
   </tlLogic>
   <tlLogic id="1299369678" offset="0" programID="0" type="static">
      <phase duration="16.3196928373" state="G"/>
      <phase duration="7.13818548249" state="y"/>
   </tlLogic>
   <tlLogic id="1299369684" offset="0" programID="0" type="static">
      <phase duration="24.8258414743" state="G"/>
      <phase duration="1.95596580423" state="y"/>
   </tlLogic>
   <tlLogic id="1299369686" offset="0" programID="0" type="static">
      <phase duration="35.5933048834" state="G"/>
      <phase duration="7.67122681857" state="y"/>
   </tlLogic>
   <tlLogic id="1299369689" offset="0" programID="0" type="static">
      <phase duration="11.9323972514" state="GGrrr"/>
      <phase duration="2.53454017198" state="yyrrr"/>
      <phase duration="11.9323972514" state="rrGrr"/>
      <phase duration="2.53454017198" state="rryrr"/>
      <phase duration="11.9323972514" state="rrrGG"/>
      <phase duration="2.53454017198" state="rrryy"/>
   </tlLogic>
   <tlLogic id="1299369697" offset="0" programID="0" type="static">
      <phase duration="14.4516211496" state="G"/>
      <phase duration="9.07891295846" state="y"/>
   </tlLogic>
   <tlLogic id="1299369701" offset="0" programID="0" type="static">
      <phase duration="25.7119534214" state="GGrrr"/>
      <phase duration="9.38526374792" state="yyrrr"/>
      <phase duration="25.7119534214" state="rrGrr"/>
      <phase duration="9.38526374792" state="rryrr"/>
      <phase duration="25.7119534214" state="rrrGG"/>
      <phase duration="9.38526374792" state="rrryy"/>
   </tlLogic>
   <tlLogic id="1312440651" offset="0" programID="0" type="static">
      <phase duration="16.9731683995" state="G"/>
      <phase duration="1.73515645294" state="y"/>
   </tlLogic>
   <tlLogic id="1312440715" offset="0" programID="0" type="static">
      <phase duration="21.0543203484" state="Gr"/>
      <phase duration="1.58244795766" state="yr"/>
      <phase duration="21.0543203484" state="rG"/>
      <phase duration="1.58244795766" state="ry"/>
   </tlLogic>
   <tlLogic id="1353566368" offset="0" programID="0" type="static">
      <phase duration="29.7599429054" state="G"/>
      <phase duration="5.5477334263" state="y"/>
   </tlLogic>
   <tlLogic id="1353566371" offset="0" programID="0" type="static">
      <phase duration="20.3624037136" state="G"/>
      <phase duration="3.5982996551" state="y"/>
   </tlLogic>
   <tlLogic id="1360932319" offset="0" programID="0" type="static"/>
   <tlLogic id="1366801185" offset="0" programID="0" type="static">
      <phase duration="22.7464041837" state="G"/>
      <phase duration="3.5231486375" state="y"/>
   </tlLogic>
   <tlLogic id="1366801190" offset="0" programID="0" type="static"/>
   <tlLogic id="1366801217" offset="0" programID="0" type="static">
      <phase duration="19.3696726661" state="G"/>
      <phase duration="3.15385456284" state="y"/>
   </tlLogic>
   <tlLogic id="1366801221" offset="0" programID="0" type="static">
      <phase duration="17.944871737" state="Gr"/>
      <phase duration="8.47522905294" state="yr"/>
      <phase duration="17.944871737" state="rG"/>
      <phase duration="8.47522905294" state="ry"/>
   </tlLogic>
   <tlLogic id="1366801262" offset="0" programID="0" type="static">
      <phase duration="32.5475996604" state="G"/>
      <phase duration="4.93290216486" state="y"/>
   </tlLogic>
   <tlLogic id="1366801267" offset="0" programID="0" type="static">
      <phase duration="27.4609842558" state="Grr"/>
      <phase duration="8.69635326251" state="yrr"/>
      <phase duration="27.4609842558" state="rGr"/>
      <phase duration="8.69635326251" state="ryr"/>
      <phase duration="27.4609842558" state="rrG"/>
      <phase duration="8.69635326251" state="rry"/>
   </tlLogic>
   <tlLogic id="1492679675" offset="0" programID="0" type="static">
      <phase duration="23.0014673659" state="Gr"/>
      <phase duration="8.26610240268" state="yr"/>
      <phase duration="23.0014673659" state="rG"/>
      <phase duration="8.26610240268" state="ry"/>
   </tlLogic>
   <tlLogic id="1492679678" offset="0" programID="0" type="static">
      <phase duration="5.99000015111" state="Gr"/>
      <phase duration="5.1847977854" state="yr"/>
      <phase duration="5.99000015111" state="rG"/>
      <phase duration="5.1847977854" state="ry"/>
   </tlLogic>
   <tlLogic id="1492679681" offset="0" programID="0" type="static">
      <phase duration="26.5598141395" state="G"/>
      <phase duration="8.38693397149" state="y"/>
   </tlLogic>
   <tlLogic id="1492679687" offset="0" programID="0" type="static">