<?xml version="1.0" ?>
<tlLogics>
   <tlLogic id="1000099553" offset="0" programID="0" type="static">
      <phase duration="7.1316817871" state="Gr"/>
      <phase duration="1.20379011957" state="yr"/>
      <phase duration="7.1316817871" state="rG"/>
      <phase duration="1.20379011957" state="ry"/>
   </tlLogic>
   <tlLogic id="1000099591" offset="0" programID="0" type="static">
      <phase duration="4.53644704694" state="GGrr"/>
      <phase duration="9.25616366444" state="yyrr"/>
      <phase duration="4.53644704694" state="rrGG"/>
      <phase duration="9.25616366444" state="rryy"/>
   </tlLogic>
   <tlLogic id="1000099607" offset="0" programID="0" type="static">
      <phase duration="25.3104816023" state="GGr"/>
      <phase duration="2.18166251411" state="yyr"/>
      <phase duration="25.3104816023" state="rrG"/>
      <phase duration="2.18166251411" state="rry"/>
   </tlLogic>
   <tlLogic id="1000099724" offset="0" programID="0" type="static">
      <phase duration="4.88789046721" state="Grrr"/>
      <phase duration="9.11681882874" state="yrrr"/>
      <phase duration="4.88789046721" state="rGGG"/>
      <phase duration="9.11681882874" state="ryyy"/>
   </tlLogic>
   <tlLogic id="1000099741" offset="0" programID="0" type="static">
      <phase duration="31.5497531635" state="GGrr"/>
      <phase duration="7.24100406806" state="yyrr"/>
      <phase duration="31.5497531635" state="rrGG"/>
      <phase duration="7.24100406806" state="rryy"/>
   </tlLogic>
   <tlLogic id="1012321567" offset="0" programID="0" type="static">
      <phase duration="25.6639267595" state="Gr"/>
      <phase duration="9.42209409798" state="yr"/>
      <phase duration="25.6639267595" state="rG"/>
      <phase duration="9.42209409798" state="ry"/>
   </tlLogic>
   <tlLogic id="1037290863" offset="0" programID="0" type="static">
      <phase duration="37.1385949772" state="GGrr"/>
      <phase duration="9.08557506196" state="yyrr"/>
      <phase duration="37.1385949772" state="rrGG"/>
      <phase duration="9.08557506196" state="rryy"/>
   </tlLogic>
   <tlLogic id="1037290889" offset="0" programID="0" type="static">
      <phase duration="19.0156291212" state="GGrr"/>
      <phase duration="4.02342358516" state="yyrr"/>
      <phase duration="19.0156291212" state="rrGG"/>
      <phase duration="4.02342358516" state="rryy"/>
   </tlLogic>
   <tlLogic id="1037290915" offset="0" programID="0" type="static">
      <phase duration="18.601965293" state="GGrrr"/>
      <phase duration="7.4487699895" state="yyrrr"/>
      <phase duration="18.601965293" state="rrGGG"/>
      <phase duration="7.4487699895" state="rryyy"/>
   </tlLogic>
   <tlLogic id="1040964328" offset="0" programID="0" type="static">
      <phase duration="21.405813599" state="Gr"/>
      <phase duration="8.82676732742" state="yr"/>
      <phase duration="21.405813599" state="rG"/>
      <phase duration="8.82676732742" state="ry"/>
   </tlLogic>
   <tlLogic id="1045044692" offset="0" programID="0" type="static">
      <phase duration="21.3583834506" state="Gr"/>
      <phase duration="9.96534105437" state="yr"/>
      <phase duration="21.3583834506" state="rG"/>
      <phase duration="9.96534105437" state="ry"/>
   </tlLogic>
   <tlLogic id="1045044715" offset="0" programID="0" type="static">
      <phase duration="15.1377059788" state="Gr"/>
      <phase duration="3.37788749937" state="yr"/>
      <phase duration="15.1377059788" state="rG"/>
      <phase duration="3.37788749937" state="ry"/>
   </tlLogic>
   <tlLogic id="1045044750" offset="0" programID="0" type="static">
      <phase duration="32.1792266317" state="Gr"/>
      <phase duration="3.39432059258" state="yr"/>
      <phase duration="32.1792266317" state="rG"/>
      <phase duration="3.39432059258" state="ry"/>
   </tlLogic>
   <tlLogic id="1045044803" offset="0" programID="0" type="static">
      <phase duration="18.2159116027" state="Gr"/>
      <phase duration="9.09767936108" state="yr"/>
      <phase duration="18.2159116027" state="rG"/>
      <phase duration="9.09767936108" state="ry"/>
   </tlLogic>
   <tlLogic id="1062771951" offset="0" programID="0" type="static">
      <phase duration="16.9880665252" state="GGrr"/>
      <phase duration="4.47942928682" state="yyrr"/>
      <phase duration="16.9880665252" state="rrGG"/>
      <phase duration="4.47942928682" state="rryy"/>
   </tlLogic>
   <tlLogic id="1149210260" offset="0" programID="0" type="static">
      <phase duration="5.7277593996" state="Gr"/>
      <phase duration="5.06177556114" state="yr"/>
      <phase duration="5.7277593996" state="rG"/>
      <phase duration="5.06177556114" state="ry"/>
   </tlLogic>
   <tlLogic id="1150667539" offset="0" programID="0" type="static">
      <phase duration="5.542232365" state="G"/>
      <phase duration="8.35539792389" state="y"/>
   </tlLogic>
   <tlLogic id="1150667546" offset="0" programID="0" type="static">
      <phase duration="19.824830018" state="G"/>
      <phase duration="6.47450177107" state="y"/>
   </tlLogic>
   <tlLogic id="1150667552" offset="0" programID="0" type="static">
      <phase duration="15.5457480142" state="Gr"/>
      <phase duration="8.21645121157" state="yr"/>
      <phase duration="15.5457480142" state="rG"/>
      <phase duration="8.21645121157" state="ry"/>
   </tlLogic>
   <tlLogic id="1150667571" offset="0" programID="0" type="static">
      <phase duration="32.1024209625" state="G"/>
      <phase duration="6.23100468418" state="y"/>
   </tlLogic>
   <tlLogic id="1150667586" offset="0" programID="0" type="static">
      <phase duration="16.7848988683" state="G"/>
      <phase duration="9.24962592006" state="y"/>
   </tlLogic>
   <tlLogic id="1150667608" offset="0" programID="0" type="static">
      <phase duration="31.3146039478" state="Gr"/>
      <phase duration="7.8244947748" state="yr"/>
      <phase duration="31.3146039478" state="rG"/>
      <phase duration="7.8244947748" state="ry"/>
   </tlLogic>
   <tlLogic id="1156723834" offset="0" programID="0" type="static">
      <phase duration="14.764225938" state="G"/>
      <phase duration="2.85293071512" state="y"/>
   </tlLogic>
   <tlLogic id="1200892960" offset="0" programID="0" type="static">
      <phase duration="19.8554744374" state="Gr"/>
      <phase duration="9.29898712871" state="yr"/>
      <phase duration="19.8554744374" state="rG"/>
      <phase duration="9.29898712871" state="ry"/>
   </tlLogic>
   <tlLogic id="1220020545" offset="0" programID="0" type="static">
      <phase duration="25.9482705391" state="GGrrr"/>
      <phase duration="6.30105151834" state="yyrrr"/>
      <phase duration="25.9482705391" state="rrGrr"/>
      <phase duration="6.30105151834" state="rryrr"/>
      <phase duration="25.9482705391" state="rrrGG"/>
      <phase duration="6.30105151834" state="rrryy"/>
   </tlLogic>
   <tlLogic id="1220020592" offset="0" programID="0" type="static">
      <phase duration="34.7979139246" state="Gr"/>
      <phase duration="8.45474722562" state="yr"/>
      <phase duration="34.7979139246" state="rG"/>
      <phase duration="8.45474722562" state="ry"/>
   </tlLogic>
   <tlLogic id="1229522502" offset="0" programID="0" type="static">
      <phase duration="27.3481695774" state="Gr"/>
      <phase duration="3.96705870943" state="yr"/>
      <phase duration="27.3481695774" state="rG"/>
      <phase duration="3.96705870943" state="ry"/>
   </tlLogic>
   <tlLogic id="1229522509" offset="0" programID="0" type="static">
      <phase duration="12.5718286611" state="G"/>
      <phase duration="7.27233707854" state="y"/>
   </tlLogic>
   <tlLogic id="1229522554" offset="0" programID="0" type="static">
      <phase duration="10.3879271215" state="G"/>
      <phase duration="5.74645699476" state="y"/>
   </tlLogic>
   <tlLogic id="1252285079" offset="0" programID="0" type="static">
      <phase duration="16.6634121009" state="Gr"/>
      <phase duration="3.62984286874" state="yr"/>
      <phase duration="16.6634121009" state="rG"/>
      <phase duration="3.62984286874" state="ry"/>
   </tlLogic>
   <tlLogic id="1252285082" offset="0" programID="0" type="static">
      <phase duration="27.6264926588" state="G"/>
      <phase duration="2.72752255373" state="y"/>
   </tlLogic>
   <tlLogic id="1252285092" offset="0" programID="0" type="static">
      <phase duration="17.3799840784" state="G"/>
      <phase duration="4.67713459701" state="y"/>
   </tlLogic>
   <tlLogic id="1252285093" offset="0" programID="0" type="static">
      <phase duration="35.8883947547" state="Gr"/>
      <phase duration="4.36317737788" state="yr"/>
      <phase duration="35.8883947547" state="rG"/>
      <phase duration="4.36317737788" state="ry"/>
   </tlLogic>
   <tlLogic id="1252285105" offset="0" programID="0" type="static">
      <phase duration="11.4755940136" state="G"/>
      <phase duration="2.91406361319" state="y"/>
   </tlLogic>
   <tlLogic id="1252285107" offset="0" programID="0" type="static">
      <phase duration="19.6204834816" state="G"/>
      <phase duration="5.79825828666" state="y"/>
   </tlLogic>
   <tlLogic id="1252285137" offset="0" programID="0" type="static">
      <phase duration="14.6624863592" state="Gr"/>
      <phase duration="9.93348829854" state="yr"/>
      <phase duration="14.6624863592" state="rG"/>
      <phase duration="9.93348829854" state="ry"/>
   </tlLogic>
   <tlLogic id="1252285138" offset="0" programID="0" type="static">
      <phase duration="10.5319162499" state="G"/>
      <phase duration="4.21952486298" state="y"/>
   </tlLogic>
   <tlLogic id="1271504738" offset="0" programID="0" type="static">
      <phase duration="26.8607364831" state="Gr"/>
      <phase duration="3.48208299977" state="yr"/>
      <phase duration="26.8607364831" state="rG"/>
      <phase duration="3.48208299977" state="ry"/>
   </tlLogic>
   <tlLogic id="1271504743" offset="0" programID="0" type="static">
      <phase duration="9.95885399158" state="G"/>
      <phase duration="8.98280611859" state="y"/>
   </tlLogic>
   <tlLogic id="1271504748" offset="0" programID="0" type="static">
      <phase duration="15.5568493791" state="Gr"/>
      <phase duration="9.66009515998" state="yr"/>
      <phase duration="15.5568493791" state="rG"/>
      <phase duration="9.66009515998" state="ry"/>
   </tlLogic>
   <tlLogic id="1271504755" offset="0" programID="0" type="static">
      <phase duration="24.8978902638" state="GGrrr"/>
      <phase duration="5.89829082461" state="yyrrr"/>
      <phase duration="24.8978902638" state="rrGrr"/>
      <phase duration="5.89829082461" state="rryrr"/>
      <phase duration="24.8978902638" state="rrrGG"/>
      <phase duration="5.89829082461" state="rrryy"/>
   </tlLogic>
   <tlLogic id="1271504756" offset="0" programID="0" type="static">
      <phase duration="27.8385989591" state="Gr"/>
      <phase duration="8.69646986169" state="yr"/>
      <phase duration="27.8385989591" state="rG"/>
      <phase duration="8.69646986169" state="ry"/>
   </tlLogic>
   <tlLogic id="1271504763" offset="0" programID="0" type="static">
      <phase duration="24.0688888807" state="G"/>
      <phase duration="4.04942288402" state="y"/>
   </tlLogic>
   <tlLogic id="1271504764" offset="0" programID="0" type="static">
      <phase duration="6.91893044022" state="G"/>
      <phase duration="4.40353576279" state="y"/>
   </tlLogic>
   <tlLogic id="1271504766" offset="0" programID="0" type="static">
      <phase duration="13.1191232042" state="Gr"/>
      <phase duration="4.81023656074" state="yr"/>
      <phase duration="13.1191232042" state="rG"/>
      <phase duration="4.81023656074" state="ry"/>
   </tlLogic>
   <tlLogic id="1271504768" offset="0" programID="0" type="static">
      <phase duration="17.7239369781" state="Gr"/>
      <phase duration="1.07653646656" state="yr"/>
      <phase duration="17.7239369781" state="rG"/>
      <phase duration="1.07653646656" state="ry"/>
   </tlLogic>
   <tlLogic id="1271504773" offset="0" programID="0" type="static">
      <phase duration="29.6055332819" state="GGrrr"/>
      <phase duration="6.88094034736" state="yyrrr"/>
      <phase duration="29.6055332819" state="rrGrr"/>
      <phase duration="6.88094034736" state="rryrr"/>
      <phase duration="29.6055332819" state="rrrGG"/>
      <phase duration="6.88094034736" state="rrryy"/>
   </tlLogic>
   <tlLogic id="1271504774" offset="0" programID="0" type="static">
      <phase duration="16.46698103" state="G"/>
      <phase duration="5.04394618255" state="y"/>
   </tlLogic>
   <tlLogic id="1271504797" offset="0" programID="0" type="static">
      <phase duration="22.8932740511" state="Gr"/>
      <phase duration="6.13640298193" state="yr"/>
      <phase duration="22.8932740511" state="rG"/>
      <phase duration="6.13640298193" state="ry"/>
   </tlLogic>
   <tlLogic id="1271504804" offset="0" programID="0" type="static">
      <phase duration="20.986250956" state="Gr"/>
      <phase duration="8.27446047666" state="yr"/>
      <phase duration="20.986250956" state="rG"/>
      <phase duration="8.27446047666" state="ry"/>
   </tlLogic>
   <tlLogic id="1271504812" offset="0" programID="0" type="static">
      <phase duration="14.2684213301" state="G"/>
      <phase duration="9.75072185446" state="y"/>
   </tlLogic>
   <tlLogic id="1271504823" offset="0" programID="0" type="static">
      <phase duration="19.0755529496" state="G"/>
      <phase duration="5.00425872449" state="y"/>
   </tlLogic>
   <tlLogic id="1271504827" offset="0" programID="0" type="static">
      <phase duration="19.5438482765" state="Gr"/>
      <phase duration="7.27628179421" state="yr"/>
      <phase duration="19.5438482765" state="rG"/>
      <phase duration="7.27628179421" state="ry"/>
   </tlLogic>
   <tlLogic id="1271504828" offset="0" programID="0" type="static">
      <phase duration="4.03082231585" state="GGrrr"/>
      <phase duration="9.50847214813" state="yyrrr"/>
      <phase duration="4.03082231585" state="rrGrr"/>
      <phase duration="9.50847214813" state="rryrr"/>
      <phase duration="4.03082231585" state="rrrGG"/>
      <phase duration="9.50847214813" state="rrryy"/>
   </tlLogic>
   <tlLogic id="1271504831" offset="0" programID="0" type="static">
      <phase duration="7.86909349042" state="G"/>
      <phase duration="2.00348887575" state="y"/>
   </tlLogic>
   <tlLogic id="1271504832" offset="0" programID="0" type="static">
      <phase duration="14.0496520453" state="Gr"/>
      <phase duration="6.12932188017" state="yr"/>
      <phase duration="14.0496520453" state="rG"/>
      <phase duration="6.12932188017" state="ry"/>
   </tlLogic>
   <tlLogic id="1271504834" offset="0" programID="0" type="static">
      <phase duration="38.977243531" state="G"/>
      <phase duration="6.17595808964" state="y"/>
   </tlLogic>
   <tlLogic id="1271504836" offset="0" programID="0" type="static">
      <phase duration="25.7779694157" state="G"/>
      <phase duration="1.21289399138" state="y"/>
   </tlLogic>
   <tlLogic id="1271504838" offset="0" programID="0" type="static">
      <phase duration="20.0151391604" state="GGrrr"/>
      <phase duration="5.00016224198" state="yyrrr"/>
      <phase duration="20.0151391604" state="rrGGr"/>
      <phase duration="5.00016224198" state="rryyr"/>
      <phase duration="20.0151391604" state="rrrrG"/>
      <phase duration="5.00016224198" state="rrrry"/>
   </tlLogic>
   <tlLogic id="1271504841" offset="0" programID="0" type="static">
      <phase duration="22.52043603" state="G"/>
      <phase duration="6.85273844235" state="y"/>
   </tlLogic>
   <tlLogic id="1271504843" offset="0" programID="0" type="static">
      <phase duration="9.00174782052" state="Gr"/>
      <phase duration="5.93154751206" state="yr"/>
      <phase duration="9.00174782052" state="rG"/>
      <phase duration="5.93154751206" state="ry"/>
   </tlLogic>
   <tlLogic id="1271504850" offset="0" programID="0" type="static">
      <phase duration="31.2859461026" state="Gr"/>
      <phase duration="2.54700579579" state="yr"/>
      <phase duration="31.2859461026" state="rG"/>
      <phase duration="2.54700579579" state="ry"/>
   </tlLogic>
   <tlLogic id="1271504861" offset="0" programID="0" type="static">
      <phase duration="10.0938210612" state="G"/>
      <phase duration="7.257473965" state="y"/>
   </tlLogic>
   <tlLogic id="1271504863" offset="0" programID="0" type="static">
      <phase duration="20.0707940624" state="G"/>
      <phase duration="8.09246468177" state="y"/>
   </tlLogic>
   <tlLogic id="1271504866" offset="0" programID="0" type="static">
      <phase duration="34.0027220724" state="G"/>
      <phase duration="8.95700603204" state="y"/>
   </tlLogic>
   <tlLogic id="1271504868" offset="0" programID="0" type="static">
      <phase duration="6.1216118262" state="Gr"/>
      <phase duration="8.76240596481" state="yr"/>
      <phase duration="6.1216118262" state="rG"/>
      <phase duration="8.76240596481" state="ry"/>
   </tlLogic>
   <tlLogic id="1271504872" offset="0" programID="0" type="static">
      <phase duration="12.9251022265" state="G"/>
      <phase duration="3.29781094893" state="y"/>
   </tlLogic>
   <tlLogic id="1271504873" offset="0" programID="0" type="static">
      <phase duration="25.0439795086" state="GGrrr"/>
      <phase duration="7.64981963827" state="yyrrr"/>
      <phase duration="25.0439795086" state="rrGrr"/>
      <phase duration="7.64981963827" state="rryrr"/>
      <phase duration="25.0439795086" state="rrrGG"/>
      <phase duration="7.64981963827" state="rrryy"/>
   </tlLogic>
   <tlLogic id="1271504874" offset="0" programID="0" type="static">
      <phase duration="28.7658514433" state="G"/>
      <phase duration="5.84349659434" state="y"/>
   </tlLogic>
   <tlLogic id="1271504876" offset="0" programID="0" type="static">
      <phase duration="12.8327514524" state="G"/>
      <phase duration="3.72295809744" state="y"/>
   </tlLogic>
   <tlLogic id="1271504881" offset="0" programID="0" type="static">
      <phase duration="16.8801651922" state="GGrrr"/>
      <phase duration="5.50160414795" state="yyrrr"/>
      <phase duration="16.8801651922" state="rrGrr"/>
      <phase duration="5.50160414795" state="rryrr"/>
      <phase duration="16.8801651922" state="rrrGG"/>
      <phase duration="5.50160414795" state="rrryy"/>
   </tlLogic>
   <tlLogic id="1271504883" offset="0" programID="0" type="static">
      <phase duration="21.0784040727" state="GGrrr"/>
      <phase duration="8.8684621011" state="yyrrr"/>
      <phase duration="21.0784040727" state="rrGrr"/>
      <phase duration="8.8684621011" state="rryrr"/>
      <phase duration="21.0784040727" state="rrrGG"/>
      <phase duration="8.8684621011" state="rrryy"/>
   </tlLogic>
   <tlLogic id="1271504884" offset="0" programID="0" type="static">
      <phase duration="20.5879178002" state="G"/>
      <phase duration="9.80622537958" state="y"/>
   </tlLogic>
   <tlLogic id="1271504887" offset="0" programID="0" type="static">
      <phase duration="18.7113453779" state="G"/>
      <phase duration="2.13602570271" state="y"/>
   </tlLogic>
   <tlLogic id="1271504888" offset="0" programID="0" type="static">
      <phase duration="10.4282906669" state="G"/>
      <phase duration="6.89515856487" state="y"/>
   </tlLogic>
   <tlLogic id="1271504889" offset="0" programID="0" type="static">
      <phase duration="13.1810530239" state="Gr"/>
      <phase duration="6.37997601368" state="yr"/>
      <phase duration="13.1810530239" state="rG"/>
      <phase duration="6.37997601368" state="ry"/>
   </tlLogic>
   <tlLogic id="1271504891" offset="0" programID="0" type="static">
      <phase duration="33.8729149176" state="G"/>
      <phase duration="7.9621784549" state="y"/>
   </tlLogic>
   <tlLogic id="1271504893" offset="0" programID="0" type="static">
      <phase duration="24.2183200958" state="GGrrr"/>
      <phase duration="9.25097204638" state="yyrrr"/>
      <phase duration="24.2183200958" state="rrGrr"/>
      <phase duration="9.25097204638" state="rryrr"/>
      <phase duration="24.2183200958" state="rrrGG"/>
      <phase duration="9.25097204638" state="rrryy"/>
   </tlLogic>
   <tlLogic id="1271504898" offset="0" programID="0" type="static">
      <phase duration="32.0645116144" state="Gr"/>
      <phase duration="3.88123671865" state="yr"/>
      <phase duration="32.0645116144" state="rG"/>
      <phase duration="3.88123671865" state="ry"/>
   </tlLogic>
   <tlLogic id="1271504899" offset="0" programID="0" type="static">
      <phase duration="16.4259911615" state="G"/>
      <phase duration="2.15805250579" state="y"/>
   </tlLogic>
   <tlLogic id="1271504901" offset="0" programID="0" type="static">
      <phase duration="23.9374459411" state="GGrrr"/>
      <phase duration="5.69683363373" state="yyrrr"/>
      <phase duration="23.9374459411" state="rrGrr"/>
      <phase duration="5.69683363373" state="rryrr"/>
      <phase duration="23.9374459411" state="rrrGG"/>
      <phase duration="5.69683363373" state="rrryy"/>
   </tlLogic>
   <tlLogic id="1271504902" offset="0" programID="0" type="static">
      <phase duration="18.8430915177" state="Gr"/>
      <phase duration="5.85911868278" state="yr"/>
      <phase duration="18.8430915177" state="rG"/>
      <phase duration="5.85911868278" state="ry"/>
   </tlLogic>
   <tlLogic id="1271504905" offset="0" programID="0" type="static">
      <phase duration="23.5684633532" state="G"/>
      <phase duration="5.70707123512" state="y"/>
   </tlLogic>
   <tlLogic id="1271504907" offset="0" programID="0" type="static">
      <phase duration="33.1966967626" state="G"/>
      <phase duration="5.1463368119" state="y"/>
   </tlLogic>
   <tlLogic id="1271504910" offset="0" programID="0" type="static">
      <phase duration="19.3001485382" state="Gr"/>
      <phase duration="2.27855237428" state="yr"/>
      <phase duration="19.3001485382" state="rG"/>
      <phase duration="2.27855237428" state="ry"/>
   </tlLogic>
   <tlLogic id="1271504911" offset="0" programID="0" type="static">
      <phase duration="10.8903658755" state="G"/>
      <phase duration="5.27389408403" state="y"/>
   </tlLogic>
   <tlLogic id="1271504913" offset="0" programID="0" type="static">
      <phase duration="25.1470022563" state="GGrrr"/>
      <phase duration="6.46107218817" state="yyrrr"/>
      <phase duration="25.1470022563" state="rrGGr"/>
      <phase duration="6.46107218817" state="rryyr"/>
      <phase duration="25.1470022563" state="rrrrG"/>
      <phase duration="6.46107218817" state="rrrry"/>
   </tlLogic>
   <tlLogic id="1299369678" offset="0" programID="0" type="static">
      <phase duration="24.1738733047" state="G"/>
      <phase duration="4.20418523545" state="y"/>
   </tlLogic>
   <tlLogic id="1299369679" offset="0" programID="0" type="static">
      <phase duration="4.83627475184" state="G"/>
      <phase duration="4.19028926492" state="y"/>
   </tlLogic>
   <tlLogic id="1299369684" offset="0" programID="0" type="static">
      <phase duration="29.9476568908" state="G"/>
      <phase duration="3.00122362401" state="y"/>
   </tlLogic>
   <tlLogic id="1299369686" offset="0" programID="0" type="static">
      <phase duration="33.2881542875" state="G"/>
      <phase duration="4.95366565775" state="y"/>
   </tlLogic>
   <tlLogic id="1312440651" offset="0" programID="0" type="static">
      <phase duration="27.2341871185" state="G"/>
      <phase duration="8.71297553421" state="y"/>
   </tlLogic>
   <tlLogic id="1312440659" offset="0" programID="0" type="static">
      <phase duration="36.2139743429" state="GGrrr"/>
      <phase duration="5.92600940512" state="yyrrr"/>
      <phase duration="36.2139743429" state="rrGrr"/>
      <phase duration="5.92600940512" state="rryrr"/>
      <phase duration="36.2139743429" state="rrrGG"/>
      <phase duration="5.92600940512" state="rrryy"/>
   </tlLogic>
   <tlLogic id="1312440715" offset="0" programID="0" type="static">
      <phase duration="22.978853945" state="Gr"/>
      <phase duration="9.27756752843" state="yr"/>
      <phase duration="22.978853945" state="rG"/>
      <phase duration="9.27756752843" state="ry"/>
   </tlLogic>
   <tlLogic id="1353566368" offset="0" programID="0" type="static">
      <phase duration="25.9685492007" state="G"/>
      <phase duration="4.20051744342" state="y"/>
   </tlLogic>
   <tlLogic id="1353566371" offset="0" programID="0" type="static">
      <phase duration="10.2572474983" state="G"/>
      <phase duration="8.92658932895" state="y"/>
   </tlLogic>
   <tlLogic id="1360932319" offset="0" programID="0" type="static"/>
   <tlLogic id="1366801174" offset="0" programID="0" type="static">
      <phase duration="6.08333937163" state="G"/>
      <phase duration="8.89873069841" state="y"/>
   </tlLogic>
   <tlLogic id="1366801191" offset="0" programID="0" type="static">
      <phase duration="24.4065346853" state="G"/>
      <phase duration="4.06163633021" state="y"/>
   </tlLogic>
   <tlLogic id="1366801217" offset="0" programID="0" type="static">
      <phase duration="9.42355736366" state="G"/>
      <phase duration="4.84782655925" state="y"/>
   </tlLogic>
   <tlLogic id="1366801221" offset="0" programID="0" type="static">
      <phase duration="25.1905377699" state="Gr"/>
      <phase duration="6.24328900488" state="yr"/>
      <phase duration="25.1905377699" state="rG"/>
      <phase duration="6.24328900488" state="ry"/>
   </tlLogic>
   <tlLogic id="1366801262" offset="0" programID="0" type="static">
      <phase duration="22.1429197926" state="G"/>
      <phase duration="6.52651257717" state="y"/>
   </tlLogic>
   <tlLogic id="1492679681" offset="0" programID="0" type="static">
      <phase duration="24.6753496518" state="G"/>
      <phase duration="4.83551355627" state="y"/>
   </tlLogic>
   <tlLogic id="1492679688" offset="0" programID="0" type="static">
      <phase duration="24.136912325" state="G"/>
      <phase duration="9.06193869138" state="y"/>
   </tlLogic>
   <tlLogic id="1492679714" offset="0" programID="0" type="static">
      <phase duration="30.0499026317" state="Gr"/>
      <phase duration="4.27456860885" state="yr"/>
      <phase duration="30.0499026317" state="rG"/>
      <phase duration="4.27456860885" state="ry"/>
   </tlLogic>
   <tlLogic id="1492679718" offset="0" programID="0" type="static"/>
   <tlLogic id="1492679729" offset="0" programID="0" type="static">
      <phase duration="16.1913445502" state="G"/>
      <phase duration="3.01289295677" state="y"/>
   </tlLogic>
   <tlLogic id="1492679731" offset="0" programID="0" type="static">
      <phase duration="37.6065695265" state="Gr"/>
      <phase duration="3.09668615852" state="yr"/>
      <phase duration="37.6065695265" state="rG"/>
      <phase duration="3.09668615852" state="ry"/>
   </tlLogic>
   <tlLogic id="1492679738" offset="0" programID="0" type="static">
      <phase duration="34.2279242521" state="G"/>
      <phase duration="6.37161345432" state="y"/>
   </tlLogic>
   <tlLogic id="1492679741" offset="0" programID="0" type="static">
      <phase duration="25.7957839455" state="G"/>
      <phase duration="2.79478119422" state="y"/>
   </tlLogic>
   <tlLogic id="1492679749" offset="0" programID="0" type="static">
      <phase duration="38.9076472294" state="GGrrr"/>
      <phase duration="6.56232803985" state="yyrrr"/>
      <phase duration="38.9076472294" state="rrGGr"/>
      <phase duration="6.56232803985" state="rryyr"/>
      <phase duration="38.9076472294" state="rrrrG"/>
      <phase duration="6.56232803985" state="rrrry"/>
   </tlLogic>
   <tlLogic id="1492679755" offset="0" programID="0" type="static">
      <phase duration="22.6439340541" state="G"/>
      <phase duration="8.7977770732" state="y"/>
   </tlLogic>
   <tlLogic id="1492679756" offset="0" programID="0" type="static">
      <phase duration="28.6353715673" state="G"/>
      <phase duration="7.59881603122" state="y"/>
   </tlLogic>
   <tlLogic id="1492729095" offset="0" programID="0" type="static">
      <phase duration="22.5579884271" state="G"/>
      <phase duration="7.5948456983" state="y"/>
   </tlLogic>
   <tlLogic id="1492729097" offset="0" programID="0" type="static">
      <phase duration="5.54928798208" state="Gr"/>
      <phase duration="8.88194120855" state="yr"/>
      <phase duration="5.54928798208" state="rG"/>
      <phase duration="8.88194120855" state="ry"/>
   </tlLogic>
   <tlLogic id="1492802030" offset="0" programID="0" type="static">
      <phase duration="23.5855559204" state="GGrr"/>
      <phase duration="6.07913492425" state="yyrr"/>
      <phase duration="23.5855559204" state="rrGG"/>
      <phase duration="6.07913492425" state="rryy"/>
   </tlLogic>
   <tlLogic id="1492802067" offset="0" programID="0" type="static">
      <phase duration="25.2155794962" state="G"/>
      <phase duration="6.48447806516" state="y"/>
   </tlLogic>
   <tlLogic id="1492802068" offset="0" programID="0" type="static">
      <phase duration="24.2149272828" state="Gr"/>
      <phase duration="7.27797236553" state="yr"/>
      <phase duration="24.2149272828" state="rG"/>
      <phase duration="7.27797236553" state="ry"/>
   </tlLogic>
   <tlLogic id="1492802069" offset="0" programID="0" type="static">
      <phase duration="29.4211159866" state="G"/>
      <phase duration="3.45128434016" state="y"/>
   </tlLogic>
   <tlLogic id="1492802093" offset="0" programID="0" type="static">
      <phase duration="20.5708226597" state="GGrrr"/>
      <phase duration="2.31538440095" state="yyrrr"/>
      <phase duration="20.5708226597" state="rrGGG"/>
      <phase duration="2.31538440095" state="rryyy"/>
   </tlLogic>
   <tlLogic id="1492802133" offset="0" programID="0" type="static">
      <phase duration="30.9083924809" state="Grr"/>
      <phase duration="9.65615231396" state="yrr"/>
      <phase duration="30.9083924809" state="rGr"/>
      <phase duration="9.65615231396" state="ryr"/>
      <phase duration="30.9083924809" state="rrG"/>
      <phase duration="9.65615231396" state="rry"/>
   </tlLogic>