<?xml version="1.0" ?>
<tlLogics>
   <tlLogic id="1000099468" offset="0" programID="0" type="static">
      <phase duration="8.23405658105" state="G"/>
      <phase duration="4.9678708508" state="y"/>
   </tlLogic>
   <tlLogic id="1000099544" offset="0" programID="0" type="static">
      <phase duration="11.3506265445" state="GGrrr"/>
      <phase duration="7.34798679062" state="yyrrr"/>
      <phase duration="11.3506265445" state="rrGGr"/>
      <phase duration="7.34798679062" state="rryyr"/>
      <phase duration="11.3506265445" state="rrrrG"/>
      <phase duration="7.34798679062" state="rrrry"/>
   </tlLogic>
   <tlLogic id="1000099551" offset="0" programID="0" type="static">
      <phase duration="16.5382686076" state="G"/>
      <phase duration="7.44135665436" state="y"/>
   </tlLogic>
   <tlLogic id="1000099553" offset="0" programID="0" type="static">
      <phase duration="11.1502770886" state="Gr"/>
      <phase duration="1.76184167774" state="yr"/>
      <phase duration="11.1502770886" state="rG"/>
      <phase duration="1.76184167774" state="ry"/>
   </tlLogic>
   <tlLogic id="1000099591" offset="0" programID="0" type="static">
      <phase duration="14.1968018053" state="GGrr"/>
      <phase duration="7.85417577726" state="yyrr"/>
      <phase duration="14.1968018053" state="rrGG"/>
      <phase duration="7.85417577726" state="rryy"/>
   </tlLogic>
   <tlLogic id="1000099607" offset="0" programID="0" type="static">
      <phase duration="34.9745225938" state="GGr"/>
      <phase duration="5.56238054032" state="yyr"/>
      <phase duration="34.9745225938" state="rrG"/>
      <phase duration="5.56238054032" state="rry"/>
   </tlLogic>
   <tlLogic id="1000099650" offset="0" programID="0" type="static">
      <phase duration="24.851239619" state="G"/>
      <phase duration="8.4256666145" state="y"/>
   </tlLogic>
   <tlLogic id="1000099651" offset="0" programID="0" type="static">
      <phase duration="9.67089459849" state="GGrrrr"/>
      <phase duration="5.98446972265" state="yyrrrr"/>
      <phase duration="9.67089459849" state="rrGGrr"/>
      <phase duration="5.98446972265" state="rryyrr"/>
      <phase duration="9.67089459849" state="rrrrGG"/>
      <phase duration="5.98446972265" state="rrrryy"/>
   </tlLogic>
   <tlLogic id="1000099724" offset="0" programID="0" type="static">
      <phase duration="9.7723595178" state="Grrr"/>
      <phase duration="8.3809519239" state="yrrr"/>
      <phase duration="9.7723595178" state="rGGG"/>
      <phase duration="8.3809519239" state="ryyy"/>
   </tlLogic>
   <tlLogic id="1000099741" offset="0" programID="0" type="static">
      <phase duration="34.4549407501" state="GGrr"/>
      <phase duration="7.20298422791" state="yyrr"/>
      <phase duration="34.4549407501" state="rrGG"/>
      <phase duration="7.20298422791" state="rryy"/>
   </tlLogic>
   <tlLogic id="1012321567" offset="0" programID="0" type="static">
      <phase duration="25.7959718198" state="Gr"/>
      <phase duration="7.6736617526" state="yr"/>
      <phase duration="25.7959718198" state="rG"/>
      <phase duration="7.6736617526" state="ry"/>
   </tlLogic>
   <tlLogic id="1012321573" offset="0" programID="0" type="static">
      <phase duration="34.8768063107" state="Gr"/>
      <phase duration="8.18434426263" state="yr"/>
      <phase duration="34.8768063107" state="rG"/>
      <phase duration="8.18434426263" state="ry"/>
   </tlLogic>
   <tlLogic id="1028832536" offset="0" programID="0" type="static"/>
   <tlLogic id="1037290915" offset="0" programID="0" type="static">
      <phase duration="24.7473789935" state="GGrrr"/>
      <phase duration="6.90114355725" state="yyrrr"/>
      <phase duration="24.7473789935" state="rrGGG"/>
      <phase duration="6.90114355725" state="rryyy"/>
   </tlLogic>
   <tlLogic id="1040964328" offset="0" programID="0" type="static">
      <phase duration="13.2578470809" state="Gr"/>
      <phase duration="6.30719981949" state="yr"/>
      <phase duration="13.2578470809" state="rG"/>
      <phase duration="6.30719981949" state="ry"/>
   </tlLogic>
   <tlLogic id="1045044692" offset="0" programID="0" type="static">
      <phase duration="12.9387388109" state="Gr"/>
      <phase duration="2.85473512119" state="yr"/>
      <phase duration="12.9387388109" state="rG"/>
      <phase duration="2.85473512119" state="ry"/>
   </tlLogic>
   <tlLogic id="1045044715" offset="0" programID="0" type="static">
      <phase duration="18.5522931273" state="Gr"/>
      <phase duration="7.24338398105" state="yr"/>
      <phase duration="18.5522931273" state="rG"/>
      <phase duration="7.24338398105" state="ry"/>
   </tlLogic>
   <tlLogic id="1045044803" offset="0" programID="0" type="static">
      <phase duration="22.1901727464" state="Gr"/>
      <phase duration="9.65464352553" state="yr"/>
      <phase duration="22.1901727464" state="rG"/>
      <phase duration="9.65464352553" state="ry"/>
   </tlLogic>
   <tlLogic id="1045044863" offset="0" programID="0" type="static">
      <phase duration="10.3039041329" state="G"/>
      <phase duration="3.73033737611" state="y"/>
   </tlLogic>
   <tlLogic id="1109589944" offset="0" programID="0" type="static">
      <phase duration="5.55564449429" state="GGGrrrrrr"/>
      <phase duration="4.74065747921" state="yyyrrrrrr"/>
      <phase duration="5.55564449429" state="rrrGGGrrr"/>
      <phase duration="4.74065747921" state="rrryyyrrr"/>
      <phase duration="5.55564449429" state="rrrrrrGGG"/>
      <phase duration="4.74065747921" state="rrrrrryyy"/>
   </tlLogic>
   <tlLogic id="1123630986" offset="0" programID="0" type="static">
      <phase duration="26.1477520577" state="G"/>
      <phase duration="4.75875966929" state="y"/>
   </tlLogic>
   <tlLogic id="1125127500" offset="0" programID="0" type="static">
      <phase duration="25.0366159933" state="GG"/>
      <phase duration="9.41686674831" state="yy"/>
   </tlLogic>
   <tlLogic id="1149210260" offset="0" programID="0" type="static">
      <phase duration="6.0169548905" state="Gr"/>
      <phase duration="3.83487915212" state="yr"/>
      <phase duration="6.0169548905" state="rG"/>
      <phase duration="3.83487915212" state="ry"/>
   </tlLogic>
   <tlLogic id="1150667539" offset="0" programID="0" type="static">
      <phase duration="6.36986063857" state="G"/>
      <phase duration="7.46155796159" state="y"/>
   </tlLogic>
   <tlLogic id="1150667540" offset="0" programID="0" type="static">
      <phase duration="21.1806029412" state="G"/>
      <phase duration="5.60088067064" state="y"/>
   </tlLogic>
   <tlLogic id="1150667552" offset="0" programID="0" type="static">
      <phase duration="19.289900386" state="Gr"/>
      <phase duration="5.87074657822" state="yr"/>
      <phase duration="19.289900386" state="rG"/>
      <phase duration="5.87074657822" state="ry"/>
   </tlLogic>
   <tlLogic id="1150667555" offset="0" programID="0" type="static">
      <phase duration="30.8683829449" state="Gr"/>
      <phase duration="8.08428307678" state="yr"/>
      <phase duration="30.8683829449" state="rG"/>
      <phase duration="8.08428307678" state="ry"/>
   </tlLogic>
   <tlLogic id="1150667558" offset="0" programID="0" type="static">
      <phase duration="7.51789576957" state="Gr"/>
      <phase duration="7.16577064806" state="yr"/>
      <phase duration="7.51789576957" state="rG"/>
      <phase duration="7.16577064806" state="ry"/>
   </tlLogic>
   <tlLogic id="1150667560" offset="0" programID="0" type="static">
      <phase duration="27.6067428577" state="G"/>
      <phase duration="5.84287304765" state="y"/>
   </tlLogic>
   <tlLogic id="1150667568" offset="0" programID="0" type="static"/>
   <tlLogic id="1150667586" offset="0" programID="0" type="static">
      <phase duration="15.4347612812" state="G"/>
      <phase duration="6.61355046241" state="y"/>
   </tlLogic>
   <tlLogic id="1150667603" offset="0" programID="0" type="static">
      <phase duration="19.0994718988" state="Gr"/>
      <phase duration="6.29434457655" state="yr"/>
      <phase duration="19.0994718988" state="rG"/>
      <phase duration="6.29434457655" state="ry"/>
   </tlLogic>
   <tlLogic id="1150667604" offset="0" programID="0" type="static">
      <phase duration="20.3825820875" state="Gr"/>
      <phase duration="6.42785386888" state="yr"/>
      <phase duration="20.3825820875" state="rG"/>
      <phase duration="6.42785386888" state="ry"/>
   </tlLogic>
   <tlLogic id="1150667608" offset="0" programID="0" type="static">
      <phase duration="29.4909992242" state="Gr"/>
      <phase duration="8.93805379784" state="yr"/>
      <phase duration="29.4909992242" state="rG"/>
      <phase duration="8.93805379784" state="ry"/>
   </tlLogic>
   <tlLogic id="1156723834" offset="0" programID="0" type="static">
      <phase duration="12.9687295663" state="G"/>
      <phase duration="2.63484344165" state="y"/>
   </tlLogic>
   <tlLogic id="1156723839" offset="0" programID="0" type="static">
      <phase duration="17.031972995" state="Gr"/>
      <phase duration="9.47456845268" state="yr"/>
      <phase duration="17.031972995" state="rG"/>
      <phase duration="9.47456845268" state="ry"/>
   </tlLogic>
   <tlLogic id="1201745377" offset="0" programID="0" type="static">
      <phase duration="5.7294409897" state="G"/>
      <phase duration="5.816039176" state="y"/>
   </tlLogic>
   <tlLogic id="1211136595" offset="0" programID="0" type="static">
      <phase duration="34.3167408017" state="G"/>
      <phase duration="7.8469099134" state="y"/>
   </tlLogic>
   <tlLogic id="1220020505" offset="0" programID="0" type="static">
      <phase duration="31.4228625708" state="G"/>
      <phase duration="6.20646941364" state="y"/>
   </tlLogic>
   <tlLogic id="1220020545" offset="0" programID="0" type="static">
      <phase duration="22.0070679538" state="GGrrr"/>
      <phase duration="6.72161285304" state="yyrrr"/>
      <phase duration="22.0070679538" state="rrGrr"/>
      <phase duration="6.72161285304" state="rryrr"/>
      <phase duration="22.0070679538" state="rrrGG"/>
      <phase duration="6.72161285304" state="rrryy"/>
   </tlLogic>
   <tlLogic id="1220020592" offset="0" programID="0" type="static">
      <phase duration="34.0701716689" state="Gr"/>
      <phase duration="5.00174530842" state="yr"/>
      <phase duration="34.0701716689" state="rG"/>
      <phase duration="5.00174530842" state="ry"/>
   </tlLogic>
   <tlLogic id="1220020673" offset="0" programID="0" type="static">
      <phase duration="20.8991051696" state="GGGrrrrrr"/>
      <phase duration="6.03423373388" state="yyyrrrrrr"/>
      <phase duration="20.8991051696" state="rrrGGGrrr"/>
      <phase duration="6.03423373388" state="rrryyyrrr"/>
      <phase duration="20.8991051696" state="rrrrrrGGG"/>
      <phase duration="6.03423373388" state="rrrrrryyy"/>
   </tlLogic>
   <tlLogic id="1220020679" offset="0" programID="0" type="static">
      <phase duration="26.8804972656" state="GGrr"/>
      <phase duration="5.20606563121" state="yyrr"/>
      <phase duration="26.8804972656" state="rrGG"/>
      <phase duration="5.20606563121" state="rryy"/>
   </tlLogic>
   <tlLogic id="1229522502" offset="0" programID="0" type="static">
      <phase duration="31.2234484231" state="Gr"/>
      <phase duration="5.8238182039" state="yr"/>
      <phase duration="31.2234484231" state="rG"/>
      <phase duration="5.8238182039" state="ry"/>
   </tlLogic>
   <tlLogic id="1229522552" offset="0" programID="0" type="static">
      <phase duration="11.0171357771" state="G"/>
      <phase duration="7.40072146243" state="y"/>
   </tlLogic>
   <tlLogic id="1229522554" offset="0" programID="0" type="static">
      <phase duration="15.6919911226" state="G"/>
      <phase duration="6.16073121604" state="y"/>
   </tlLogic>
   <tlLogic id="1252285082" offset="0" programID="0" type="static">
      <phase duration="25.786469439" state="G"/>
      <phase duration="3.21050606221" state="y"/>
   </tlLogic>
   <tlLogic id="1252285092" offset="0" programID="0" type="static">
      <phase duration="21.1176430643" state="G"/>
      <phase duration="7.30005927774" state="y"/>
   </tlLogic>
   <tlLogic id="1252285093" offset="0" programID="0" type="static">
      <phase duration="23.2660533718" state="Gr"/>
      <phase duration="3.3080301728" state="yr"/>
      <phase duration="23.2660533718" state="rG"/>
      <phase duration="3.3080301728" state="ry"/>
   </tlLogic>
   <tlLogic id="1252285107" offset="0" programID="0" type="static">
      <phase duration="17.6233601223" state="G"/>
      <phase duration="4.81595475951" state="y"/>
   </tlLogic>
   <tlLogic id="1252285133" offset="0" programID="0" type="static">
      <phase duration="25.4642361533" state="Gr"/>
      <phase duration="4.84344552313" state="yr"/>
      <phase duration="25.4642361533" state="rG"/>
      <phase duration="4.84344552313" state="ry"/>
   </tlLogic>
   <tlLogic id="1252285137" offset="0" programID="0" type="static">
      <phase duration="13.7932118427" state="Gr"/>
      <phase duration="9.61528442338" state="yr"/>
      <phase duration="13.7932118427" state="rG"/>
      <phase duration="9.61528442338" state="ry"/>
   </tlLogic>
   <tlLogic id="1252285138" offset="0" programID="0" type="static">
      <phase duration="11.3127269971" state="G"/>
      <phase duration="3.32617713702" state="y"/>
   </tlLogic>
   <tlLogic id="1271504748" offset="0" programID="0" type="static">
      <phase duration="17.3683759578" state="Gr"/>
      <phase duration="9.11590667781" state="yr"/>
      <phase duration="17.3683759578" state="rG"/>
      <phase duration="9.11590667781" state="ry"/>
   </tlLogic>
   <tlLogic id="1271504750" offset="0" programID="0" type="static">
      <phase duration="9.70188030049" state="G"/>
      <phase duration="3.92661383934" state="y"/>
   </tlLogic>
   <tlLogic id="1271504755" offset="0" programID="0" type="static">
      <phase duration="29.570432275" state="GGrrr"/>
      <phase duration="2.54510420869" state="yyrrr"/>
      <phase duration="29.570432275" state="rrGrr"/>
      <phase duration="2.54510420869" state="rryrr"/>
      <phase duration="29.570432275" state="rrrGG"/>
      <phase duration="2.54510420869" state="rrryy"/>
   </tlLogic>
   <tlLogic id="1271504756" offset="0" programID="0" type="static">
      <phase duration="30.2636802295" state="Gr"/>
      <phase duration="8.82687060766" state="yr"/>
      <phase duration="30.2636802295" state="rG"/>
      <phase duration="8.82687060766" state="ry"/>
   </tlLogic>
   <tlLogic id="1271504762" offset="0" programID="0" type="static">
      <phase duration="21.3130898256" state="G"/>
      <phase duration="8.9746165275" state="y"/>
   </tlLogic>
   <tlLogic id="1271504767" offset="0" programID="0" type="static">
      <phase duration="15.9774024108" state="G"/>
      <phase duration="9.30412708601" state="y"/>
   </tlLogic>
   <tlLogic id="1271504768" offset="0" programID="0" type="static">
      <phase duration="24.8092613077" state="Gr"/>
      <phase duration="8.56841253865" state="yr"/>
      <phase duration="24.8092613077" state="rG"/>
      <phase duration="8.56841253865" state="ry"/>
   </tlLogic>
   <tlLogic id="1271504773" offset="0" programID="0" type="static">
      <phase duration="23.9469423048" state="GGrrr"/>
      <phase duration="3.87280597442" state="yyrrr"/>
      <phase duration="23.9469423048" state="rrGrr"/>
      <phase duration="3.87280597442" state="rryrr"/>
      <phase duration="23.9469423048" state="rrrGG"/>
      <phase duration="3.87280597442" state="rrryy"/>
   </tlLogic>
   <tlLogic id="1271504774" offset="0" programID="0" type="static">
      <phase duration="10.3629035627" state="G"/>
      <phase duration="4.16126312238" state="y"/>
   </tlLogic>
   <tlLogic id="1271504778" offset="0" programID="0" type="static">
      <phase duration="17.7798132553" state="G"/>
      <phase duration="4.09305680815" state="y"/>
   </tlLogic>
   <tlLogic id="1271504783" offset="0" programID="0" type="static">
      <phase duration="26.1109520382" state="Gr"/>
      <phase duration="3.43780533197" state="yr"/>
      <phase duration="26.1109520382" state="rG"/>
      <phase duration="3.43780533197" state="ry"/>
   </tlLogic>
   <tlLogic id="1271504788" offset="0" programID="0" type="static">
      <phase duration="5.38815348749" state="GGrrr"/>
      <phase duration="5.68317740245" state="yyrrr"/>
      <phase duration="5.38815348749" state="rrGGG"/>
      <phase duration="5.68317740245" state="rryyy"/>
   </tlLogic>
   <tlLogic id="1271504795" offset="0" programID="0" type="static">
      <phase duration="23.9650424325" state="G"/>
      <phase duration="4.97688510816" state="y"/>
   </tlLogic>
   <tlLogic id="1271504804" offset="0" programID="0" type="static">
      <phase duration="25.6165071343" state="Gr"/>
      <phase duration="6.68228733204" state="yr"/>
      <phase duration="25.6165071343" state="rG"/>
      <phase duration="6.68228733204" state="ry"/>
   </tlLogic>
   <tlLogic id="1271504812" offset="0" programID="0" type="static">
      <phase duration="16.948008801" state="G"/>
      <phase duration="8.19712548741" state="y"/>
   </tlLogic>
   <tlLogic id="1271504819" offset="0" programID="0" type="static">
      <phase duration="6.67000295982" state="Gr"/>
      <phase duration="4.73774307792" state="yr"/>
      <phase duration="6.67000295982" state="rG"/>
      <phase duration="4.73774307792" state="ry"/>
   </tlLogic>
   <tlLogic id="1271504822" offset="0" programID="0" type="static">
      <phase duration="21.6262441943" state="G"/>
      <phase duration="7.62845896359" state="y"/>
   </tlLogic>
   <tlLogic id="1271504824" offset="0" programID="0" type="static">
      <phase duration="9.35161705145" state="G"/>
      <phase duration="4.11882716745" state="y"/>
   </tlLogic>
   <tlLogic id="1271504827" offset="0" programID="0" type="static">
      <phase duration="17.2084558038" state="Gr"/>
      <phase duration="6.84968442652" state="yr"/>
      <phase duration="17.2084558038" state="rG"/>
      <phase duration="6.84968442652" state="ry"/>
   </tlLogic>
   <tlLogic id="1271504828" offset="0" programID="0" type="static">
      <phase duration="16.0757787506" state="GGrrr"/>
      <phase duration="8.28957946714" state="yyrrr"/>
      <phase duration="16.0757787506" state="rrGrr"/>
      <phase duration="8.28957946714" state="rryrr"/>
      <phase duration="16.0757787506" state="rrrGG"/>
      <phase duration="8.28957946714" state="rrryy"/>
   </tlLogic>
   <tlLogic id="1271504829" offset="0" programID="0" type="static">
      <phase duration="25.7470937159" state="Gr"/>
      <phase duration="7.00517675676" state="yr"/>
      <phase duration="25.7470937159" state="rG"/>
      <phase duration="7.00517675676" state="ry"/>
   </tlLogic>
   <tlLogic id="1271504831" offset="0" programID="0" type="static">
      <phase duration="29.1020507308" state="G"/>
      <phase duration="2.1213121284" state="y"/>
   </tlLogic>
   <tlLogic id="1271504832" offset="0" programID="0" type="static">
      <phase duration="16.1293132117" state="Gr"/>
      <phase duration="6.46314408087" state="yr"/>
      <phase duration="16.1293132117" state="rG"/>
      <phase duration="6.46314408087" state="ry"/>
   </tlLogic>
   <tlLogic id="1271504834" offset="0" programID="0" type="static">
      <phase duration="27.7451922318" state="G"/>
      <phase duration="9.5961309162" state="y"/>
   </tlLogic>
   <tlLogic id="1271504842" offset="0" programID="0" type="static">
      <phase duration="34.7201881901" state="G"/>
      <phase duration="7.16172064836" state="y"/>
   </tlLogic>
   <tlLogic id="1271504843" offset="0" programID="0" type="static">
      <phase duration="16.6131181056" state="Gr"/>
      <phase duration="2.47637147336" state="yr"/>
      <phase duration="16.6131181056" state="rG"/>
      <phase duration="2.47637147336" state="ry"/>
   </tlLogic>
   <tlLogic id="1271504845" offset="0" programID="0" type="static">
      <phase duration="15.9679547321" state="G"/>
      <phase duration="6.08525494604" state="y"/>
   </tlLogic>
   <tlLogic id="1271504850" offset="0" programID="0" type="static">
      <phase duration="33.1820162422" state="Gr"/>
      <phase duration="2.64548928593" state="yr"/>
      <phase duration="33.1820162422" state="rG"/>
      <phase duration="2.64548928593" state="ry"/>
   </tlLogic>
   <tlLogic id="1271504861" offset="0" programID="0" type="static">
      <phase duration="14.8956655595" state="G"/>
      <phase duration="6.89564974462" state="y"/>
   </tlLogic>
   <tlLogic id="1271504866" offset="0" programID="0" type="static">
      <phase duration="29.0637581292" state="G"/>
      <phase duration="5.9035338324" state="y"/>
   </tlLogic>
   <tlLogic id="1271504867" offset="0" programID="0" type="static">
      <phase duration="22.3528987776" state="G"/>
      <phase duration="8.90288068228" state="y"/>
   </tlLogic>
   <tlLogic id="1271504871" offset="0" programID="0" type="static">
      <phase duration="11.4805950181" state="GGrr"/>
      <phase duration="7.29318081796" state="yyrr"/>
      <phase duration="11.4805950181" state="rrGG"/>
      <phase duration="7.29318081796" state="rryy"/>
   </tlLogic>
   <tlLogic id="1271504872" offset="0" programID="0" type="static">
      <phase duration="11.6649540129" state="G"/>
      <phase duration="5.22371938267" state="y"/>
   </tlLogic>
   <tlLogic id="1271504873" offset="0" programID="0" type="static">
      <phase duration="15.441459266" state="GGrrr"/>
      <phase duration="4.6958093126" state="yyrrr"/>
      <phase duration="15.441459266" state="rrGrr"/>
      <phase duration="4.6958093126" state="rryrr"/>
      <phase duration="15.441459266" state="rrrGG"/>
      <phase duration="4.6958093126" state="rrryy"/>
   </tlLogic>
   <tlLogic id="1271504874" offset="0" programID="0" type="static">
      <phase duration="24.3497140166" state="G"/>
      <phase duration="7.61494981282" state="y"/>
   </tlLogic>
   <tlLogic id="1271504875" offset="0" programID="0" type="static">
      <phase duration="9.10782014635" state="G"/>
      <phase duration="7.45498596664" state="y"/>
   </tlLogic>
   <tlLogic id="1271504881" offset="0" programID="0" type="static">
      <phase duration="20.2605530762" state="GGrrr"/>
      <phase duration="7.51416692531" state="yyrrr"/>
      <phase duration="20.2605530762" state="rrGrr"/>
      <phase duration="7.51416692531" state="rryrr"/>
      <phase duration="20.2605530762" state="rrrGG"/>
      <phase duration="7.51416692531" state="rrryy"/>
   </tlLogic>
   <tlLogic id="1271504883" offset="0" programID="0" type="static">
      <phase duration="21.3110708664" state="GGrrr"/>
      <phase duration="5.06926418449" state="yyrrr"/>
      <phase duration="21.3110708664" state="rrGrr"/>
      <phase duration="5.06926418449" state="rryrr"/>
      <phase duration="21.3110708664" state="rrrGG"/>
      <phase duration="5.06926418449" state="rrryy"/>
   </tlLogic>
   <tlLogic id="1271504884" offset="0" programID="0" type="static">
      <phase duration="30.6854904693" state="G"/>
      <phase duration="6.33712960619" state="y"/>
   </tlLogic>
   <tlLogic id="1271504887" offset="0" programID="0" type="static">
      <phase duration="19.5819013518" state="G"/>
      <phase duration="4.07332922252" state="y"/>
   </tlLogic>
   <tlLogic id="1271504889" offset="0" programID="0" type="static">
      <phase duration="26.7819412784" state="Gr"/>
      <phase duration="7.92822999881" state="yr"/>
      <phase duration="26.7819412784" state="rG"/>
      <phase duration="7.92822999881" state="ry"/>
   </tlLogic>
   <tlLogic id="1271504891" offset="0" programID="0" type="static">
      <phase duration="31.7769312046" state="G"/>
      <phase duration="9.27589123093" state="y"/>
   </tlLogic>
   <tlLogic id="1271504893" offset="0" programID="0" type="static">
      <phase duration="30.7660061248" state="GGrrr"/>
      <phase duration="6.42425597815" state="yyrrr"/>
      <phase duration="30.7660061248" state="rrGrr"/>
      <phase duration="6.42425597815" state="rryrr"/>
      <phase duration="30.7660061248" state="rrrGG"/>
      <phase duration="6.42425597815" state="rrryy"/>
   </tlLogic>
   <tlLogic id="1271504898" offset="0" programID="0" type="static">
      <phase duration="31.5323582713" state="Gr"/>
      <phase duration="2.74870952934" state="yr"/>
      <phase duration="31.5323582713" state="rG"/>
      <phase duration="2.74870952934" state="ry"/>
   </tlLogic>
   <tlLogic id="1271504899" offset="0" programID="0" type="static">
      <phase duration="17.5405851573" state="G"/>
      <phase duration="5.00552774231" state="y"/>
   </tlLogic>
   <tlLogic id="1271504901" offset="0" programID="0" type="static">
      <phase duration="30.4989896635" state="GGrrr"/>
      <phase duration="3.1011127878" state="yyrrr"/>
      <phase duration="30.4989896635" state="rrGrr"/>
      <phase duration="3.1011127878" state="rryrr"/>
      <phase duration="30.4989896635" state="rrrGG"/>
      <phase duration="3.1011127878" state="rrryy"/>
   </tlLogic>
   <tlLogic id="1271504902" offset="0" programID="0" type="static">
      <phase duration="21.5153569137" state="Gr"/>
      <phase duration="6.0814531411" state="yr"/>
      <phase duration="21.5153569137" state="rG"/>
      <phase duration="6.0814531411" state="ry"/>
   </tlLogic>
   <tlLogic id="1271504904" offset="0" programID="0" type="static">
      <phase duration="21.1973234925" state="Grr"/>
      <phase duration="7.48207627827" state="yrr"/>
      <phase duration="21.1973234925" state="rGG"/>
      <phase duration="7.48207627827" state="ryy"/>
   </tlLogic>
   <tlLogic id="1271504905" offset="0" programID="0" type="static">
      <phase duration="31.079923377" state="G"/>
      <phase duration="7.04099090192" state="y"/>
   </tlLogic>
   <tlLogic id="1271504907" offset="0" programID="0" type="static">
      <phase duration="38.0364956167" state="G"/>
      <phase duration="7.47182125758" state="y"/>
   </tlLogic>
   <tlLogic id="1271504908" offset="0" programID="0" type="static">
      <phase duration="19.6207560874" state="G"/>
      <phase duration="6.03400824495" state="y"/>
   </tlLogic>
   <tlLogic id="1271504910" offset="0" programID="0" type="static">
      <phase duration="14.9612684757" state="Gr"/>
      <phase duration="7.52583988156" state="yr"/>
      <phase duration="14.9612684757" state="rG"/>
      <phase duration="7.52583988156" state="ry"/>
   </tlLogic>
   <tlLogic id="1271504911" offset="0" programID="0" type="static">
      <phase duration="7.97947022942" state="G"/>
      <phase duration="7.86633585348" state="y"/>
   </tlLogic>
   <tlLogic id="1271504913" offset="0" programID="0" type="static">
      <phase duration="28.396399873" state="GGrrr"/>
      <phase duration="8.81989823681" state="yyrrr"/>
      <phase duration="28.396399873" state="rrGGr"/>
      <phase duration="8.81989823681" state="rryyr"/>
      <phase duration="28.396399873" state="rrrrG"/>
      <phase duration="8.81989823681" state="rrrry"/>
   </tlLogic>
   <tlLogic id="1271504914" offset="0" programID="0" type="static">
      <phase duration="25.3717871305" state="G"/>
      <phase duration="7.69312622404" state="y"/>
   </tlLogic>
   <tlLogic id="1299369678" offset="0" programID="0" type="static">
      <phase duration="18.4928027773" state="G"/>
      <phase duration="8.18373442172" state="y"/>
   </tlLogic>
   <tlLogic id="1299369684" offset="0" programID="0" type="static">
      <phase duration="27.3659073386" state="G"/>
      <phase duration="1.98679726291" state="y"/>
   </tlLogic>
   <tlLogic id="1299369686" offset="0" programID="0" type="static">
      <phase duration="33.5556574151" state="G"/>
      <phase duration="6.57979055088" state="y"/>
   </tlLogic>
   <tlLogic id="1299369691" offset="0" programID="0" type="static">
      <phase duration="17.4754549089" state="Gr"/>
      <phase duration="2.78932771825" state="yr"/>
      <phase duration="17.4754549089" state="rG"/>
      <phase duration="2.78932771825" state="ry"/>
   </tlLogic>
   <tlLogic id="1312440651" offset="0" programID="0" type="static">
      <phase duration="18.2695845885" state="G"/>
      <phase duration="5.73876769263" state="y"/>
   </tlLogic>
   <tlLogic id="1312440715" offset="0" programID="0" type="static">
      <phase duration="19.0819490932" state="Gr"/>
      <phase duration="4.511366563" state="yr"/>
      <phase duration="19.0819490932" state="rG"/>
      <phase duration="4.511366563" state="ry"/>
   </tlLogic>
   <tlLogic id="1312812204" offset="0" programID="0" type="static">
      <phase duration="23.7050036805" state="G"/>
      <phase duration="2.85634464542" state="y"/>
   </tlLogic>
   <tlLogic id="1353566368" offset="0" programID="0" type="static">
      <phase duration="27.0978717185" state="G"/>
      <phase duration="6.5041260046" state="y"/>
   </tlLogic>
   <tlLogic id="1353566371" offset="0" programID="0" type="static">
      <phase duration="21.712676064" state="G"/>
      <phase duration="7.36290034139" state="y"/>
   </tlLogic>
   <tlLogic id="1360932319" offset="0" programID="0" type="static"/>
   <tlLogic id="1366801185" offset="0" programID="0" type="static">
      <phase duration="27.6971050949" state="G"/>
      <phase duration="3.6916311207" state="y"/>
   </tlLogic>
   <tlLogic id="1366801190" offset="0" programID="0" type="static"/>
   <tlLogic id="1366801217" offset="0" programID="0" type="static">
      <phase duration="28.4020757467" state="G"/>
      <phase duration="6.19852303411" state="y"/>
   </tlLogic>
   <tlLogic id="1366801221" offset="0" programID="0" type="static">
      <phase duration="25.2308880014" state="Gr"/>
      <phase duration="8.42649382102" state="yr"/>
      <phase duration="25.2308880014" state="rG"/>
      <phase duration="8.42649382102" state="ry"/>
   </tlLogic>
   <tlLogic id="1366801262" offset="0" programID="0" type="static">