<?xml version="1.0" ?>
<tlLogics>
   <tlLogic id="1000099544" offset="0" programID="0" type="static">
      <phase duration="16.0221026376" state="GGrrr"/>
      <phase duration="9.23476400188" state="yyrrr"/>
      <phase duration="16.0221026376" state="rrGGr"/>
      <phase duration="9.23476400188" state="rryyr"/>
      <phase duration="16.0221026376" state="rrrrG"/>
      <phase duration="9.23476400188" state="rrrry"/>
   </tlLogic>
   <tlLogic id="1000099576" offset="0" programID="0" type="static">
      <phase duration="28.0035972162" state="Grrrr"/>
      <phase duration="4.12429096769" state="yrrrr"/>
      <phase duration="28.0035972162" state="rGGrr"/>
      <phase duration="4.12429096769" state="ryyrr"/>
      <phase duration="28.0035972162" state="rrrGG"/>
      <phase duration="4.12429096769" state="rrryy"/>
   </tlLogic>
   <tlLogic id="1000099591" offset="0" programID="0" type="static">
      <phase duration="18.1842047923" state="GGrr"/>
      <phase duration="2.66644289952" state="yyrr"/>
      <phase duration="18.1842047923" state="rrGG"/>
      <phase duration="2.66644289952" state="rryy"/>
   </tlLogic>
   <tlLogic id="1000099650" offset="0" programID="0" type="static">
      <phase duration="13.7636727101" state="G"/>
      <phase duration="9.56973411118" state="y"/>
   </tlLogic>
   <tlLogic id="1000099724" offset="0" programID="0" type="static">
      <phase duration="8.19358609132" state="Grrr"/>
      <phase duration="4.13032080763" state="yrrr"/>
      <phase duration="8.19358609132" state="rGGG"/>
      <phase duration="4.13032080763" state="ryyy"/>
   </tlLogic>
   <tlLogic id="1000099788" offset="0" programID="0" type="static">
      <phase duration="19.1424352283" state="GGrr"/>
      <phase duration="7.13149997387" state="yyrr"/>
      <phase duration="19.1424352283" state="rrGG"/>
      <phase duration="7.13149997387" state="rryy"/>
   </tlLogic>
   <tlLogic id="1012321567" offset="0" programID="0" type="static">
      <phase duration="14.0883477678" state="Gr"/>
      <phase duration="7.42705493534" state="yr"/>
      <phase duration="14.0883477678" state="rG"/>
      <phase duration="7.42705493534" state="ry"/>
   </tlLogic>
   <tlLogic id="1012321573" offset="0" programID="0" type="static">
      <phase duration="30.0834045082" state="Gr"/>
      <phase duration="2.90975972452" state="yr"/>
      <phase duration="30.0834045082" state="rG"/>
      <phase duration="2.90975972452" state="ry"/>
   </tlLogic>
   <tlLogic id="1012321580" offset="0" programID="0" type="static">
      <phase duration="14.6143032555" state="Gr"/>
      <phase duration="7.59119714912" state="yr"/>
      <phase duration="14.6143032555" state="rG"/>
      <phase duration="7.59119714912" state="ry"/>
   </tlLogic>
   <tlLogic id="1012326820" offset="0" programID="0" type="static">
      <phase duration="5.11905454047" state="G"/>
      <phase duration="4.25026897122" state="y"/>
   </tlLogic>
   <tlLogic id="1028832186" offset="0" programID="0" type="static"/>
   <tlLogic id="1028832536" offset="0" programID="0" type="static"/>
   <tlLogic id="1037290808" offset="0" programID="0" type="static">
      <phase duration="22.9803020031" state="GGGrrrrrr"/>
      <phase duration="6.63401714066" state="yyyrrrrrr"/>
      <phase duration="22.9803020031" state="rrrGGGrrr"/>
      <phase duration="6.63401714066" state="rrryyyrrr"/>
      <phase duration="22.9803020031" state="rrrrrrGGG"/>
      <phase duration="6.63401714066" state="rrrrrryyy"/>
   </tlLogic>
   <tlLogic id="1037290822" offset="0" programID="0" type="static">
      <phase duration="10.4599982386" state="GGrr"/>
      <phase duration="7.22553902057" state="yyrr"/>
      <phase duration="10.4599982386" state="rrGG"/>
      <phase duration="7.22553902057" state="rryy"/>
   </tlLogic>
   <tlLogic id="1037290889" offset="0" programID="0" type="static">
      <phase duration="12.0193857777" state="GGrr"/>
      <phase duration="5.05794771067" state="yyrr"/>
      <phase duration="12.0193857777" state="rrGG"/>
      <phase duration="5.05794771067" state="rryy"/>
   </tlLogic>
   <tlLogic id="1037290915" offset="0" programID="0" type="static">
      <phase duration="12.5631456645" state="GGrrr"/>
      <phase duration="6.97945122355" state="yyrrr"/>
      <phase duration="12.5631456645" state="rrGGG"/>
      <phase duration="6.97945122355" state="rryyy"/>
   </tlLogic>
   <tlLogic id="1040964328" offset="0" programID="0" type="static">
      <phase duration="18.5889978619" state="Gr"/>
      <phase duration="9.08637394287" state="yr"/>
      <phase duration="18.5889978619" state="rG"/>
      <phase duration="9.08637394287" state="ry"/>
   </tlLogic>
   <tlLogic id="1045044692" offset="0" programID="0" type="static">
      <phase duration="22.106964569" state="Gr"/>
      <phase duration="5.66893322338" state="yr"/>
      <phase duration="22.106964569" state="rG"/>
      <phase duration="5.66893322338" state="ry"/>
   </tlLogic>
   <tlLogic id="1045044715" offset="0" programID="0" type="static">
      <phase duration="34.4199260819" state="Gr"/>
      <phase duration="6.30527387036" state="yr"/>
      <phase duration="34.4199260819" state="rG"/>
      <phase duration="6.30527387036" state="ry"/>
   </tlLogic>
   <tlLogic id="1045044750" offset="0" programID="0" type="static">
      <phase duration="33.1346685419" state="Gr"/>
      <phase duration="6.12271888641" state="yr"/>
      <phase duration="33.1346685419" state="rG"/>
      <phase duration="6.12271888641" state="ry"/>
   </tlLogic>
   <tlLogic id="1045044796" offset="0" programID="0" type="static">
      <phase duration="12.3665761746" state="Gr"/>
      <phase duration="5.15995445092" state="yr"/>
      <phase duration="12.3665761746" state="rG"/>
      <phase duration="5.15995445092" state="ry"/>
   </tlLogic>
   <tlLogic id="1045044863" offset="0" programID="0" type="static">
      <phase duration="17.5874488144" state="G"/>
      <phase duration="4.43161301364" state="y"/>
   </tlLogic>
   <tlLogic id="1062771951" offset="0" programID="0" type="static">
      <phase duration="22.7804067316" state="GGrr"/>
      <phase duration="7.14810963403" state="yyrr"/>
      <phase duration="22.7804067316" state="rrGG"/>
      <phase duration="7.14810963403" state="rryy"/>
   </tlLogic>
   <tlLogic id="1123630986" offset="0" programID="0" type="static">
      <phase duration="7.66857354292" state="G"/>
      <phase duration="6.41222763658" state="y"/>
   </tlLogic>
   <tlLogic id="1149210260" offset="0" programID="0" type="static">
      <phase duration="21.1638619545" state="Gr"/>
      <phase duration="5.694617423" state="yr"/>
      <phase duration="21.1638619545" state="rG"/>
      <phase duration="5.694617423" state="ry"/>
   </tlLogic>
   <tlLogic id="1150667539" offset="0" programID="0" type="static">
      <phase duration="6.2315612504" state="G"/>
      <phase duration="9.22550594802" state="y"/>
   </tlLogic>
   <tlLogic id="1150667552" offset="0" programID="0" type="static">
      <phase duration="20.9422367481" state="Gr"/>
      <phase duration="8.79754930837" state="yr"/>
      <phase duration="20.9422367481" state="rG"/>
      <phase duration="8.79754930837" state="ry"/>
   </tlLogic>
   <tlLogic id="1150667586" offset="0" programID="0" type="static">
      <phase duration="4.61589347342" state="G"/>
      <phase duration="7.49268690361" state="y"/>
   </tlLogic>
   <tlLogic id="1150667604" offset="0" programID="0" type="static">
      <phase duration="18.45971233" state="Gr"/>
      <phase duration="5.35036362603" state="yr"/>
      <phase duration="18.45971233" state="rG"/>
      <phase duration="5.35036362603" state="ry"/>
   </tlLogic>
   <tlLogic id="1150667618" offset="0" programID="0" type="static">
      <phase duration="17.0548657997" state="G"/>
      <phase duration="4.20766961694" state="y"/>
   </tlLogic>
   <tlLogic id="1156723779" offset="0" programID="0" type="static">
      <phase duration="30.1343370212" state="GGrrr"/>
      <phase duration="4.23666193552" state="yyrrr"/>
      <phase duration="30.1343370212" state="rrGrr"/>
      <phase duration="4.23666193552" state="rryrr"/>
      <phase duration="30.1343370212" state="rrrGG"/>
      <phase duration="4.23666193552" state="rrryy"/>
   </tlLogic>
   <tlLogic id="1200892937" offset="0" programID="0" type="static">
      <phase duration="24.0373393588" state="G"/>
      <phase duration="6.77886291798" state="y"/>
   </tlLogic>
   <tlLogic id="1201745377" offset="0" programID="0" type="static">
      <phase duration="25.987154224" state="G"/>
      <phase duration="6.60138776916" state="y"/>
   </tlLogic>
   <tlLogic id="1211136595" offset="0" programID="0" type="static">
      <phase duration="23.2032410452" state="G"/>
      <phase duration="8.53963063623" state="y"/>
   </tlLogic>
   <tlLogic id="1220020545" offset="0" programID="0" type="static">
      <phase duration="35.673195759" state="GGrrr"/>
      <phase duration="7.88252764568" state="yyrrr"/>
      <phase duration="35.673195759" state="rrGrr"/>
      <phase duration="7.88252764568" state="rryrr"/>
      <phase duration="35.673195759" state="rrrGG"/>
      <phase duration="7.88252764568" state="rrryy"/>
   </tlLogic>
   <tlLogic id="1220020656" offset="0" programID="0" type="static">
      <phase duration="24.1103215847" state="GGrr"/>
      <phase duration="8.07579651682" state="yyrr"/>
      <phase duration="24.1103215847" state="rrGG"/>
      <phase duration="8.07579651682" state="rryy"/>
   </tlLogic>
   <tlLogic id="1220020673" offset="0" programID="0" type="static">
      <phase duration="25.2164497945" state="GGGrrrrrr"/>
      <phase duration="7.6389480627" state="yyyrrrrrr"/>
      <phase duration="25.2164497945" state="rrrGGGrrr"/>
      <phase duration="7.6389480627" state="rrryyyrrr"/>
      <phase duration="25.2164497945" state="rrrrrrGGG"/>
      <phase duration="7.6389480627" state="rrrrrryyy"/>
   </tlLogic>
   <tlLogic id="1220020679" offset="0" programID="0" type="static">
      <phase duration="15.2240983451" state="GGrr"/>
      <phase duration="2.79340605127" state="yyrr"/>
      <phase duration="15.2240983451" state="rrGG"/>
      <phase duration="2.79340605127" state="rryy"/>
   </tlLogic>
   <tlLogic id="1229522462" offset="0" programID="0" type="static">
      <phase duration="25.9611639984" state="G"/>
      <phase duration="6.22954693072" state="y"/>
   </tlLogic>
   <tlLogic id="1229522509" offset="0" programID="0" type="static">
      <phase duration="4.31219989466" state="G"/>
      <phase duration="4.55868701625" state="y"/>
   </tlLogic>
   <tlLogic id="1229522552" offset="0" programID="0" type="static">
      <phase duration="11.6737314183" state="G"/>
      <phase duration="6.46823494388" state="y"/>
   </tlLogic>
   <tlLogic id="1252285079" offset="0" programID="0" type="static">
      <phase duration="31.4641577045" state="Gr"/>
      <phase duration="6.17229555757" state="yr"/>
      <phase duration="31.4641577045" state="rG"/>
      <phase duration="6.17229555757" state="ry"/>
   </tlLogic>
   <tlLogic id="1252285082" offset="0" programID="0" type="static">
      <phase duration="32.511735344" state="G"/>
      <phase duration="4.40910317122" state="y"/>
   </tlLogic>
   <tlLogic id="1252285085" offset="0" programID="0" type="static">
      <phase duration="26.3759958577" state="Gr"/>
      <phase duration="6.7376544368" state="yr"/>
      <phase duration="26.3759958577" state="rG"/>
      <phase duration="6.7376544368" state="ry"/>
   </tlLogic>
   <tlLogic id="1252285093" offset="0" programID="0" type="static">
      <phase duration="22.5064438729" state="Gr"/>
      <phase duration="4.78833337018" state="yr"/>
      <phase duration="22.5064438729" state="rG"/>
      <phase duration="4.78833337018" state="ry"/>
   </tlLogic>
   <tlLogic id="1252285105" offset="0" programID="0" type="static">
      <phase duration="8.63200814665" state="G"/>
      <phase duration="6.73156640776" state="y"/>
   </tlLogic>
   <tlLogic id="1252285133" offset="0" programID="0" type="static">
      <phase duration="22.1207565161" state="Gr"/>
      <phase duration="6.38348269321" state="yr"/>
      <phase duration="22.1207565161" state="rG"/>
      <phase duration="6.38348269321" state="ry"/>
   </tlLogic>
   <tlLogic id="1252285137" offset="0" programID="0" type="static">
      <phase duration="25.5181255228" state="Gr"/>
      <phase duration="4.05102039079" state="yr"/>
      <phase duration="25.5181255228" state="rG"/>
      <phase duration="4.05102039079" state="ry"/>
   </tlLogic>
   <tlLogic id="1252285138" offset="0" programID="0" type="static">
      <phase duration="5.48625313639" state="G"/>
      <phase duration="6.10150837424" state="y"/>
   </tlLogic>
   <tlLogic id="1252285140" offset="0" programID="0" type="static">
      <phase duration="26.8984650822" state="Gr"/>
      <phase duration="6.29886771512" state="yr"/>
      <phase duration="26.8984650822" state="rG"/>
      <phase duration="6.29886771512" state="ry"/>
   </tlLogic>
   <tlLogic id="1264255381" offset="0" programID="0" type="static">
      <phase duration="19.0364993806" state="GGGrrrrrr"/>
      <phase duration="3.25738815604" state="yyyrrrrrr"/>
      <phase duration="19.0364993806" state="rrrGGGrrr"/>
      <phase duration="3.25738815604" state="rrryyyrrr"/>
      <phase duration="19.0364993806" state="rrrrrrGGG"/>
      <phase duration="3.25738815604" state="rrrrrryyy"/>
   </tlLogic>
   <tlLogic id="1271504738" offset="0" programID="0" type="static">
      <phase duration="15.5239464402" state="Gr"/>
      <phase duration="4.67515227047" state="yr"/>
      <phase duration="15.5239464402" state="rG"/>
      <phase duration="4.67515227047" state="ry"/>
   </tlLogic>
   <tlLogic id="1271504747" offset="0" programID="0" type="static">
      <phase duration="21.4615508215" state="Gr"/>
      <phase duration="7.69455239502" state="yr"/>
      <phase duration="21.4615508215" state="rG"/>
      <phase duration="7.69455239502" state="ry"/>
   </tlLogic>
   <tlLogic id="1271504750" offset="0" programID="0" type="static">
      <phase duration="21.3788319248" state="G"/>
      <phase duration="5.5558352673" state="y"/>
   </tlLogic>
   <tlLogic id="1271504757" offset="0" programID="0" type="static">
      <phase duration="17.4363420944" state="GGrrr"/>
      <phase duration="4.28194058291" state="yyrrr"/>
      <phase duration="17.4363420944" state="rrGrr"/>
      <phase duration="4.28194058291" state="rryrr"/>
      <phase duration="17.4363420944" state="rrrGG"/>
      <phase duration="4.28194058291" state="rrryy"/>
   </tlLogic>
   <tlLogic id="1271504758" offset="0" programID="0" type="static">
      <phase duration="21.9759171828" state="G"/>
      <phase duration="3.77222456865" state="y"/>
   </tlLogic>
   <tlLogic id="1271504764" offset="0" programID="0" type="static">
      <phase duration="10.0411045635" state="G"/>
      <phase duration="3.72247222182" state="y"/>
   </tlLogic>
   <tlLogic id="1271504767" offset="0" programID="0" type="static">
      <phase duration="14.7961865884" state="G"/>
      <phase duration="9.86863728475" state="y"/>
   </tlLogic>
   <tlLogic id="1271504768" offset="0" programID="0" type="static">
      <phase duration="25.5058773034" state="Gr"/>
      <phase duration="8.82055388571" state="yr"/>
      <phase duration="25.5058773034" state="rG"/>
      <phase duration="8.82055388571" state="ry"/>
   </tlLogic>
   <tlLogic id="1271504773" offset="0" programID="0" type="static">
      <phase duration="6.71854493982" state="GGrrr"/>
      <phase duration="2.43378105953" state="yyrrr"/>
      <phase duration="6.71854493982" state="rrGrr"/>
      <phase duration="2.43378105953" state="rryrr"/>
      <phase duration="6.71854493982" state="rrrGG"/>
      <phase duration="2.43378105953" state="rrryy"/>
   </tlLogic>
   <tlLogic id="1271504774" offset="0" programID="0" type="static">
      <phase duration="16.8950822511" state="G"/>
      <phase duration="6.35794579485" state="y"/>
   </tlLogic>
   <tlLogic id="1271504778" offset="0" programID="0" type="static">
      <phase duration="14.1619272815" state="G"/>
      <phase duration="8.59701239326" state="y"/>
   </tlLogic>
   <tlLogic id="1271504781" offset="0" programID="0" type="static">
      <phase duration="23.6575169889" state="GGrrr"/>
      <phase duration="7.81900021052" state="yyrrr"/>
      <phase duration="23.6575169889" state="rrGrr"/>
      <phase duration="7.81900021052" state="rryrr"/>
      <phase duration="23.6575169889" state="rrrGG"/>
      <phase duration="7.81900021052" state="rrryy"/>
   </tlLogic>
   <tlLogic id="1271504788" offset="0" programID="0" type="static">
      <phase duration="34.9936417737" state="GGrrr"/>
      <phase duration="8.61644188901" state="yyrrr"/>
      <phase duration="34.9936417737" state="rrGGG"/>
      <phase duration="8.61644188901" state="rryyy"/>
   </tlLogic>
   <tlLogic id="1271504797" offset="0" programID="0" type="static">
      <phase duration="10.6497115568" state="Gr"/>
      <phase duration="5.09824941301" state="yr"/>
      <phase duration="10.6497115568" state="rG"/>
      <phase duration="5.09824941301" state="ry"/>
   </tlLogic>
   <tlLogic id="1271504801" offset="0" programID="0" type="static">
      <phase duration="25.9014414552" state="G"/>
      <phase duration="4.79681878794" state="y"/>
   </tlLogic>
   <tlLogic id="1271504812" offset="0" programID="0" type="static">
      <phase duration="19.6582799234" state="G"/>
      <phase duration="6.31654716604" state="y"/>
   </tlLogic>
   <tlLogic id="1271504813" offset="0" programID="0" type="static">
      <phase duration="15.4643474999" state="G"/>
      <phase duration="8.83801955525" state="y"/>
   </tlLogic>
   <tlLogic id="1271504814" offset="0" programID="0" type="static">
      <phase duration="9.23155729321" state="G"/>
      <phase duration="9.45226081791" state="y"/>
   </tlLogic>
   <tlLogic id="1271504815" offset="0" programID="0" type="static">
      <phase duration="39.9749523702" state="Gr"/>
      <phase duration="9.89082500045" state="yr"/>
      <phase duration="39.9749523702" state="rG"/>
      <phase duration="9.89082500045" state="ry"/>
   </tlLogic>
   <tlLogic id="1271504816" offset="0" programID="0" type="static">
      <phase duration="8.45318270271" state="G"/>
      <phase duration="9.6539520758" state="y"/>
   </tlLogic>
   <tlLogic id="1271504817" offset="0" programID="0" type="static">
      <phase duration="26.0933245074" state="G"/>
      <phase duration="6.91725541538" state="y"/>
   </tlLogic>
   <tlLogic id="1271504823" offset="0" programID="0" type="static">
      <phase duration="36.6714942982" state="G"/>
      <phase duration="5.07327271598" state="y"/>
   </tlLogic>
   <tlLogic id="1271504824" offset="0" programID="0" type="static">
      <phase duration="15.7679112214" state="G"/>
      <phase duration="3.81461083691" state="y"/>
   </tlLogic>
   <tlLogic id="1271504827" offset="0" programID="0" type="static">
      <phase duration="14.7496202722" state="Gr"/>
      <phase duration="5.16387565725" state="yr"/>
      <phase duration="14.7496202722" state="rG"/>
      <phase duration="5.16387565725" state="ry"/>
   </tlLogic>
   <tlLogic id="1271504828" offset="0" programID="0" type="static">
      <phase duration="23.9011372213" state="GGrrr"/>
      <phase duration="9.98632871663" state="yyrrr"/>
      <phase duration="23.9011372213" state="rrGrr"/>
      <phase duration="9.98632871663" state="rryrr"/>
      <phase duration="23.9011372213" state="rrrGG"/>
      <phase duration="9.98632871663" state="rrryy"/>
   </tlLogic>
   <tlLogic id="1271504832" offset="0" programID="0" type="static">
      <phase duration="19.0197690867" state="Gr"/>
      <phase duration="9.96948325426" state="yr"/>
      <phase duration="19.0197690867" state="rG"/>
      <phase duration="9.96948325426" state="ry"/>
   </tlLogic>
   <tlLogic id="1271504834" offset="0" programID="0" type="static">
      <phase duration="20.1836886652" state="G"/>
      <phase duration="9.9725868864" state="y"/>
   </tlLogic>
   <tlLogic id="1271504841" offset="0" programID="0" type="static">
      <phase duration="26.2378246883" state="G"/>
      <phase duration="7.14851438089" state="y"/>
   </tlLogic>
   <tlLogic id="1271504842" offset="0" programID="0" type="static">
      <phase duration="33.7420242532" state="G"/>
      <phase duration="7.43214031197" state="y"/>
   </tlLogic>
   <tlLogic id="1271504844" offset="0" programID="0" type="static">
      <phase duration="37.8217297886" state="G"/>
      <phase duration="9.73780462506" state="y"/>
   </tlLogic>
   <tlLogic id="1271504845" offset="0" programID="0" type="static">
      <phase duration="32.7746463929" state="G"/>
      <phase duration="6.51745557739" state="y"/>
   </tlLogic>
   <tlLogic id="1271504849" offset="0" programID="0" type="static">
      <phase duration="22.2183364173" state="GGrrr"/>
      <phase duration="7.50629346219" state="yyrrr"/>
      <phase duration="22.2183364173" state="rrGrr"/>
      <phase duration="7.50629346219" state="rryrr"/>
      <phase duration="22.2183364173" state="rrrGG"/>
      <phase duration="7.50629346219" state="rrryy"/>
   </tlLogic>
   <tlLogic id="1271504850" offset="0" programID="0" type="static">
      <phase duration="38.1259160017" state="Gr"/>
      <phase duration="3.85848310369" state="yr"/>
      <phase duration="38.1259160017" state="rG"/>
      <phase duration="3.85848310369" state="ry"/>
   </tlLogic>
   <tlLogic id="1271504855" offset="0" programID="0" type="static">
      <phase duration="31.7709398518" state="Gr"/>
      <phase duration="7.8263805605" state="yr"/>
      <phase duration="31.7709398518" state="rG"/>
      <phase duration="7.8263805605" state="ry"/>
   </tlLogic>
   <tlLogic id="1271504858" offset="0" programID="0" type="static">
      <phase duration="35.7487391284" state="G"/>
      <phase duration="6.13975350092" state="y"/>
   </tlLogic>
   <tlLogic id="1271504861" offset="0" programID="0" type="static">
      <phase duration="19.703395942" state="G"/>
      <phase duration="5.16107895906" state="y"/>
   </tlLogic>
   <tlLogic id="1271504863" offset="0" programID="0" type="static">
      <phase duration="30.524583615" state="G"/>
      <phase duration="3.6966248236" state="y"/>
   </tlLogic>
   <tlLogic id="1271504864" offset="0" programID="0" type="static">
      <phase duration="15.9806683063" state="G"/>
      <phase duration="9.10419517205" state="y"/>
   </tlLogic>
   <tlLogic id="1271504867" offset="0" programID="0" type="static">
      <phase duration="23.2719458871" state="G"/>
      <phase duration="8.69867788639" state="y"/>
   </tlLogic>
   <tlLogic id="1271504868" offset="0" programID="0" type="static">
      <phase duration="12.9218842164" state="Gr"/>
      <phase duration="9.90317210254" state="yr"/>
      <phase duration="12.9218842164" state="rG"/>
      <phase duration="9.90317210254" state="ry"/>
   </tlLogic>
   <tlLogic id="1271504871" offset="0" programID="0" type="static">
      <phase duration="16.2413333312" state="GGrr"/>
      <phase duration="5.59978717727" state="yyrr"/>
      <phase duration="16.2413333312" state="rrGG"/>
      <phase duration="5.59978717727" state="rryy"/>
   </tlLogic>
   <tlLogic id="1271504873" offset="0" programID="0" type="static">
      <phase duration="9.04315507276" state="GGrrr"/>
      <phase duration="2.69483929021" state="yyrrr"/>
      <phase duration="9.04315507276" state="rrGrr"/>
      <phase duration="2.69483929021" state="rryrr"/>
      <phase duration="9.04315507276" state="rrrGG"/>
      <phase duration="2.69483929021" state="rrryy"/>
   </tlLogic>
   <tlLogic id="1271504884" offset="0" programID="0" type="static">
      <phase duration="18.6260795309" state="G"/>
      <phase duration="7.83841110213" state="y"/>
   </tlLogic>
   <tlLogic id="1271504887" offset="0" programID="0" type="static">
      <phase duration="21.7928258701" state="G"/>
      <phase duration="7.69230441665" state="y"/>
   </tlLogic>
   <tlLogic id="1271504888" offset="0" programID="0" type="static">
      <phase duration="9.83958657027" state="G"/>
      <phase duration="5.65738196643" state="y"/>
   </tlLogic>
   <tlLogic id="1271504889" offset="0" programID="0" type="static">
      <phase duration="20.8016312661" state="Gr"/>
      <phase duration="4.49310650267" state="yr"/>
      <phase duration="20.8016312661" state="rG"/>
      <phase duration="4.49310650267" state="ry"/>
   </tlLogic>
   <tlLogic id="1271504891" offset="0" programID="0" type="static">
      <phase duration="22.3017153825" state="G"/>
      <phase duration="7.89766773608" state="y"/>
   </tlLogic>
   <tlLogic id="1271504894" offset="0" programID="0" type="static">
      <phase duration="27.9405582438" state="G"/>
      <phase duration="1.94913163222" state="y"/>
   </tlLogic>
   <tlLogic id="1271504895" offset="0" programID="0" type="static">
      <phase duration="21.4470174877" state="GGrrr"/>
      <phase duration="5.02367683348" state="yyrrr"/>
      <phase duration="21.4470174877" state="rrGrr"/>
      <phase duration="5.02367683348" state="rryrr"/>
      <phase duration="21.4470174877" state="rrrGG"/>
      <phase duration="5.02367683348" state="rrryy"/>
   </tlLogic>
   <tlLogic id="1271504898" offset="0" programID="0" type="static">
      <phase duration="27.1074551382" state="Gr"/>
      <phase duration="8.78642169797" state="yr"/>
      <phase duration="27.1074551382" state="rG"/>
      <phase duration="8.78642169797" state="ry"/>
   </tlLogic>
   <tlLogic id="1271504899" offset="0" programID="0" type="static">
      <phase duration="21.001342092" state="G"/>
      <phase duration="3.35812352737" state="y"/>
   </tlLogic>
   <tlLogic id="1271504901" offset="0" programID="0" type="static">
      <phase duration="25.8786485485" state="GGrrr"/>
      <phase duration="3.25460990444" state="yyrrr"/>
      <phase duration="25.8786485485" state="rrGrr"/>
      <phase duration="3.25460990444" state="rryrr"/>
      <phase duration="25.8786485485" state="rrrGG"/>
      <phase duration="3.25460990444" state="rrryy"/>
   </tlLogic>
   <tlLogic id="1271504904" offset="0" programID="0" type="static">
      <phase duration="19.5666947719" state="Grr"/>
      <phase duration="8.15494067898" state="yrr"/>
      <phase duration="19.5666947719" state="rGG"/>
      <phase duration="8.15494067898" state="ryy"/>
   </tlLogic>
   <tlLogic id="1271504905" offset="0" programID="0" type="static">
      <phase duration="36.395123012" state="G"/>
      <phase duration="8.98674883006" state="y"/>
   </tlLogic>
   <tlLogic id="1298727142" offset="0" programID="0" type="static">
      <phase duration="31.7324573092" state="Gr"/>
      <phase duration="2.8013988509" state="yr"/>
      <phase duration="31.7324573092" state="rG"/>
      <phase duration="2.8013988509" state="ry"/>
   </tlLogic>
   <tlLogic id="1299369678" offset="0" programID="0" type="static">
      <phase duration="23.8885686672" state="G"/>
      <phase duration="9.94673819807" state="y"/>
   </tlLogic>
   <tlLogic id="1299369684" offset="0" programID="0" type="static">
      <phase duration="28.3375529389" state="G"/>
      <phase duration="2.64026818533" state="y"/>
   </tlLogic>
   <tlLogic id="1299369686" offset="0" programID="0" type="static">
      <phase duration="23.116266588" state="G"/>
      <phase duration="4.69194212799" state="y"/>
   </tlLogic>
   <tlLogic id="1299369689" offset="0" programID="0" type="static">
      <phase duration="27.6030566925" state="GGrrr"/>
      <phase duration="9.65408508362" state="yyrrr"/>
      <phase duration="27.6030566925" state="rrGrr"/>
      <phase duration="9.65408508362" state="rryrr"/>
      <phase duration="27.6030566925" state="rrrGG"/>
      <phase duration="9.65408508362" state="rrryy"/>
   </tlLogic>
   <tlLogic id="1299369691" offset="0" programID="0" type="static">
      <phase duration="7.15149942473" state="Gr"/>
      <phase duration="2.744289086" state="yr"/>
      <phase duration="7.15149942473" state="rG"/>
      <phase duration="2.744289086" state="ry"/>
   </tlLogic>
   <tlLogic id="1299369699" offset="0" programID="0" type="static">
      <phase duration="24.5483090093" state="G"/>
      <phase duration="6.77793393967" state="y"/>
   </tlLogic>
   <tlLogic id="1312440659" offset="0" programID="0" type="static">
      <phase duration="18.612766171" state="GGrrr"/>
      <phase duration="8.02870184736" state="yyrrr"/>
      <phase duration="18.612766171" state="rrGrr"/>
      <phase duration="8.02870184736" state="rryrr"/>
      <phase duration="18.612766171" state="rrrGG"/>
      <phase duration="8.02870184736" state="rrryy"/>
   </tlLogic>
   <tlLogic id="1312812204" offset="0" programID="0" type="static">
      <phase duration="19.7338754327" state="G"/>
      <phase duration="5.40093132731" state="y"/>
   </tlLogic>
   <tlLogic id="1353566368" offset="0" programID="0" type="static">
      <phase duration="33.8913342394" state="G"/>
      <phase duration="9.22490614781" state="y"/>
   </tlLogic>
   <tlLogic id="1360932319" offset="0" programID="0" type="static"/>
   <tlLogic id="1366801174" offset="0" programID="0" type="static">
      <phase duration="5.96288216697" state="G"/>
      <phase duration="7.28298126021" state="y"/>
   </tlLogic>
   <tlLogic id="1366801190" offset="0" programID="0" type="static"/>
   <tlLogic id="1366801221" offset="0" programID="0" type="static">
      <phase duration="16.8848003875" state="Gr"/>
      <phase duration="8.11916127336" state="yr"/>
      <phase duration="16.8848003875" state="rG"/>
      <phase duration="8.11916127336" state="ry"/>
   </tlLogic>
   <tlLogic id="1366801262" offset="0" programID="0" type="static">
      <phase duration="15.475502882" state="G"/>
      <phase duration="9.82891470014" state="y"/>
   </tlLogic>