<?xml version="1.0" ?>
<tlLogics>
   <tlLogic id="1000099591" offset="0" programID="0" type="static">
      <phase duration="18.6124011073" state="GGrr"/>
      <phase duration="2.17784511795" state="yyrr"/>
      <phase duration="18.6124011073" state="rrGG"/>
      <phase duration="2.17784511795" state="rryy"/>
   </tlLogic>
   <tlLogic id="1000099607" offset="0" programID="0" type="static">
      <phase duration="29.6803292557" state="GGr"/>
      <phase duration="9.27316704445" state="yyr"/>
      <phase duration="29.6803292557" state="rrG"/>
      <phase duration="9.27316704445" state="rry"/>
   </tlLogic>
   <tlLogic id="1000099650" offset="0" programID="0" type="static">
      <phase duration="20.1655112287" state="G"/>
      <phase duration="9.58793739897" state="y"/>
   </tlLogic>
   <tlLogic id="1000099651" offset="0" programID="0" type="static">
      <phase duration="13.8406333382" state="GGrrrr"/>
      <phase duration="3.24806638315" state="yyrrrr"/>
      <phase duration="13.8406333382" state="rrGGrr"/>
      <phase duration="3.24806638315" state="rryyrr"/>
      <phase duration="13.8406333382" state="rrrrGG"/>
      <phase duration="3.24806638315" state="rrrryy"/>
   </tlLogic>
   <tlLogic id="1000099724" offset="0" programID="0" type="static">
      <phase duration="15.8130406971" state="Grrr"/>
      <phase duration="7.16452868789" state="yrrr"/>
      <phase duration="15.8130406971" state="rGGG"/>
      <phase duration="7.16452868789" state="ryyy"/>
   </tlLogic>
   <tlLogic id="1000099741" offset="0" programID="0" type="static">
      <phase duration="29.8117633473" state="GGrr"/>
      <phase duration="6.31912552373" state="yyrr"/>
      <phase duration="29.8117633473" state="rrGG"/>
      <phase duration="6.31912552373" state="rryy"/>
   </tlLogic>
   <tlLogic id="1012321567" offset="0" programID="0" type="static">
      <phase duration="26.338830541" state="Gr"/>
      <phase duration="7.51706285657" state="yr"/>
      <phase duration="26.338830541" state="rG"/>
      <phase duration="7.51706285657" state="ry"/>
   </tlLogic>
   <tlLogic id="1012326820" offset="0" programID="0" type="static">
      <phase duration="5.52798501926" state="G"/>
      <phase duration="7.91469868844" state="y"/>
   </tlLogic>
   <tlLogic id="1028832536" offset="0" programID="0" type="static"/>
   <tlLogic id="1037290808" offset="0" programID="0" type="static">
      <phase duration="19.5984259924" state="GGGrrrrrr"/>
      <phase duration="6.53331209599" state="yyyrrrrrr"/>
      <phase duration="19.5984259924" state="rrrGGGrrr"/>
      <phase duration="6.53331209599" state="rrryyyrrr"/>
      <phase duration="19.5984259924" state="rrrrrrGGG"/>
      <phase duration="6.53331209599" state="rrrrrryyy"/>
   </tlLogic>
   <tlLogic id="1037290822" offset="0" programID="0" type="static">
      <phase duration="15.5560531184" state="GGrr"/>
      <phase duration="1.9671563659" state="yyrr"/>
      <phase duration="15.5560531184" state="rrGG"/>
      <phase duration="1.9671563659" state="rryy"/>
   </tlLogic>
   <tlLogic id="1040964328" offset="0" programID="0" type="static">
      <phase duration="16.2623158252" state="Gr"/>
      <phase duration="8.59631834795" state="yr"/>
      <phase duration="16.2623158252" state="rG"/>
      <phase duration="8.59631834795" state="ry"/>
   </tlLogic>
   <tlLogic id="1045044750" offset="0" programID="0" type="static">
      <phase duration="33.8885739587" state="Gr"/>
      <phase duration="8.29050374667" state="yr"/>
      <phase duration="33.8885739587" state="rG"/>
      <phase duration="8.29050374667" state="ry"/>
   </tlLogic>
   <tlLogic id="1045044796" offset="0" programID="0" type="static">
      <phase duration="10.1391903538" state="Gr"/>
      <phase duration="5.35831233214" state="yr"/>
      <phase duration="10.1391903538" state="rG"/>
      <phase duration="5.35831233214" state="ry"/>
   </tlLogic>
   <tlLogic id="1045044863" offset="0" programID="0" type="static">
      <phase duration="23.5385159983" state="G"/>
      <phase duration="4.54383038144" state="y"/>
   </tlLogic>
   <tlLogic id="1109589944" offset="0" programID="0" type="static">
      <phase duration="5.09630784167" state="GGGrrrrrr"/>
      <phase duration="2.63409786444" state="yyyrrrrrr"/>
      <phase duration="5.09630784167" state="rrrGGGrrr"/>
      <phase duration="2.63409786444" state="rrryyyrrr"/>
      <phase duration="5.09630784167" state="rrrrrrGGG"/>
      <phase duration="2.63409786444" state="rrrrrryyy"/>
   </tlLogic>
   <tlLogic id="1123630986" offset="0" programID="0" type="static">
      <phase duration="18.4193201126" state="G"/>
      <phase duration="7.70247290203" state="y"/>
   </tlLogic>
   <tlLogic id="1149210260" offset="0" programID="0" type="static">
      <phase duration="29.7789169588" state="Gr"/>
      <phase duration="5.66506960184" state="yr"/>
      <phase duration="29.7789169588" state="rG"/>
      <phase duration="5.66506960184" state="ry"/>
   </tlLogic>
   <tlLogic id="1150667539" offset="0" programID="0" type="static">
      <phase duration="9.25099230039" state="G"/>
      <phase duration="5.71617704005" state="y"/>
   </tlLogic>
   <tlLogic id="1150667540" offset="0" programID="0" type="static">
      <phase duration="22.6288355459" state="G"/>
      <phase duration="5.61263459121" state="y"/>
   </tlLogic>
   <tlLogic id="1150667555" offset="0" programID="0" type="static">
      <phase duration="25.3501593356" state="Gr"/>
      <phase duration="3.85935272528" state="yr"/>
      <phase duration="25.3501593356" state="rG"/>
      <phase duration="3.85935272528" state="ry"/>
   </tlLogic>
   <tlLogic id="1150667560" offset="0" programID="0" type="static">
      <phase duration="25.6633568855" state="G"/>
      <phase duration="7.81265685408" state="y"/>
   </tlLogic>
   <tlLogic id="1150667604" offset="0" programID="0" type="static">
      <phase duration="17.9521684249" state="Gr"/>
      <phase duration="7.58831835634" state="yr"/>
      <phase duration="17.9521684249" state="rG"/>
      <phase duration="7.58831835634" state="ry"/>
   </tlLogic>
   <tlLogic id="1150667608" offset="0" programID="0" type="static">
      <phase duration="22.4448343156" state="Gr"/>
      <phase duration="9.50919827625" state="yr"/>
      <phase duration="22.4448343156" state="rG"/>
      <phase duration="9.50919827625" state="ry"/>
   </tlLogic>
   <tlLogic id="1150667622" offset="0" programID="0" type="static">
      <phase duration="29.0343929307" state="G"/>
      <phase duration="4.66599855719" state="y"/>
   </tlLogic>
   <tlLogic id="1156723779" offset="0" programID="0" type="static">
      <phase duration="37.3440099037" state="GGrrr"/>
      <phase duration="5.9942651619" state="yyrrr"/>
      <phase duration="37.3440099037" state="rrGrr"/>
      <phase duration="5.9942651619" state="rryrr"/>
      <phase duration="37.3440099037" state="rrrGG"/>
      <phase duration="5.9942651619" state="rrryy"/>
   </tlLogic>
   <tlLogic id="1156723834" offset="0" programID="0" type="static">
      <phase duration="26.5491188764" state="G"/>
      <phase duration="4.44987184335" state="y"/>
   </tlLogic>
   <tlLogic id="1156723839" offset="0" programID="0" type="static">
      <phase duration="9.08257171264" state="Gr"/>
      <phase duration="8.5203534438" state="yr"/>
      <phase duration="9.08257171264" state="rG"/>
      <phase duration="8.5203534438" state="ry"/>
   </tlLogic>
   <tlLogic id="1220020656" offset="0" programID="0" type="static">
      <phase duration="20.964476428" state="GGrr"/>
      <phase duration="9.87570845889" state="yyrr"/>
      <phase duration="20.964476428" state="rrGG"/>
      <phase duration="9.87570845889" state="rryy"/>
   </tlLogic>
   <tlLogic id="1220020673" offset="0" programID="0" type="static">
      <phase duration="26.7764671692" state="GGGrrrrrr"/>
      <phase duration="5.09259355604" state="yyyrrrrrr"/>
      <phase duration="26.7764671692" state="rrrGGGrrr"/>
      <phase duration="5.09259355604" state="rrryyyrrr"/>
      <phase duration="26.7764671692" state="rrrrrrGGG"/>
      <phase duration="5.09259355604" state="rrrrrryyy"/>
   </tlLogic>
   <tlLogic id="1220020679" offset="0" programID="0" type="static">
      <phase duration="15.2278023434" state="GGrr"/>
      <phase duration="4.13587630661" state="yyrr"/>
      <phase duration="15.2278023434" state="rrGG"/>
      <phase duration="4.13587630661" state="rryy"/>
   </tlLogic>
   <tlLogic id="1229522502" offset="0" programID="0" type="static">
      <phase duration="27.5576195321" state="Gr"/>
      <phase duration="3.65331720996" state="yr"/>
      <phase duration="27.5576195321" state="rG"/>
      <phase duration="3.65331720996" state="ry"/>
   </tlLogic>
   <tlLogic id="1229522509" offset="0" programID="0" type="static">
      <phase duration="18.5014744476" state="G"/>
      <phase duration="9.95214817845" state="y"/>
   </tlLogic>
   <tlLogic id="1229522552" offset="0" programID="0" type="static">
      <phase duration="9.68443569969" state="G"/>
      <phase duration="5.9484942923" state="y"/>
   </tlLogic>
   <tlLogic id="1229522554" offset="0" programID="0" type="static">
      <phase duration="18.9296375524" state="G"/>
      <phase duration="5.82423236461" state="y"/>
   </tlLogic>
   <tlLogic id="1252285093" offset="0" programID="0" type="static">
      <phase duration="20.0194751064" state="Gr"/>
      <phase duration="5.60802918386" state="yr"/>
      <phase duration="20.0194751064" state="rG"/>
      <phase duration="5.60802918386" state="ry"/>
   </tlLogic>
   <tlLogic id="1252285105" offset="0" programID="0" type="static">
      <phase duration="14.2210583633" state="G"/>
      <phase duration="8.88656810452" state="y"/>
   </tlLogic>
   <tlLogic id="1252285107" offset="0" programID="0" type="static">
      <phase duration="19.1249181738" state="G"/>
      <phase duration="8.20153997361" state="y"/>
   </tlLogic>
   <tlLogic id="1252285133" offset="0" programID="0" type="static">
      <phase duration="16.7291666371" state="Gr"/>
      <phase duration="6.10427043816" state="yr"/>
      <phase duration="16.7291666371" state="rG"/>
      <phase duration="6.10427043816" state="ry"/>
   </tlLogic>
   <tlLogic id="1252285137" offset="0" programID="0" type="static">
      <phase duration="16.1312154448" state="Gr"/>
      <phase duration="8.23693763146" state="yr"/>
      <phase duration="16.1312154448" state="rG"/>
      <phase duration="8.23693763146" state="ry"/>
   </tlLogic>
   <tlLogic id="1252285138" offset="0" programID="0" type="static">
      <phase duration="15.218210707" state="G"/>
      <phase duration="3.51455787609" state="y"/>
   </tlLogic>
   <tlLogic id="1252285140" offset="0" programID="0" type="static">
      <phase duration="28.5139391655" state="Gr"/>
      <phase duration="7.25394563437" state="yr"/>
      <phase duration="28.5139391655" state="rG"/>
      <phase duration="7.25394563437" state="ry"/>
   </tlLogic>
   <tlLogic id="1264255381" offset="0" programID="0" type="static">
      <phase duration="4.88700744696" state="GGGrrrrrr"/>
      <phase duration="4.27293767841" state="yyyrrrrrr"/>
      <phase duration="4.88700744696" state="rrrGGGrrr"/>
      <phase duration="4.27293767841" state="rrryyyrrr"/>
      <phase duration="4.88700744696" state="rrrrrrGGG"/>
      <phase duration="4.27293767841" state="rrrrrryyy"/>
   </tlLogic>
   <tlLogic id="1271504738" offset="0" programID="0" type="static">
      <phase duration="18.8736188491" state="Gr"/>
      <phase duration="5.16443941902" state="yr"/>
      <phase duration="18.8736188491" state="rG"/>
      <phase duration="5.16443941902" state="ry"/>
   </tlLogic>
   <tlLogic id="1271504750" offset="0" programID="0" type="static">
      <phase duration="8.99978942502" state="G"/>
      <phase duration="6.01729788098" state="y"/>
   </tlLogic>
   <tlLogic id="1271504757" offset="0" programID="0" type="static">
      <phase duration="6.54741373397" state="GGrrr"/>
      <phase duration="6.86380499805" state="yyrrr"/>
      <phase duration="6.54741373397" state="rrGrr"/>
      <phase duration="6.86380499805" state="rryrr"/>
      <phase duration="6.54741373397" state="rrrGG"/>
      <phase duration="6.86380499805" state="rrryy"/>
   </tlLogic>
   <tlLogic id="1271504762" offset="0" programID="0" type="static">
      <phase duration="21.6527521299" state="G"/>
      <phase duration="6.85495788678" state="y"/>
   </tlLogic>
   <tlLogic id="1271504767" offset="0" programID="0" type="static">
      <phase duration="9.76334894846" state="G"/>
      <phase duration="3.27097169313" state="y"/>
   </tlLogic>
   <tlLogic id="1271504768" offset="0" programID="0" type="static">
      <phase duration="27.1914140806" state="Gr"/>
      <phase duration="9.02311764757" state="yr"/>
      <phase duration="27.1914140806" state="rG"/>
      <phase duration="9.02311764757" state="ry"/>
   </tlLogic>
   <tlLogic id="1271504774" offset="0" programID="0" type="static">
      <phase duration="17.0580369332" state="G"/>
      <phase duration="6.99314042296" state="y"/>
   </tlLogic>
   <tlLogic id="1271504778" offset="0" programID="0" type="static">
      <phase duration="12.4977596024" state="G"/>
      <phase duration="4.1939770187" state="y"/>
   </tlLogic>
   <tlLogic id="1271504788" offset="0" programID="0" type="static">
      <phase duration="5.38184130004" state="GGrrr"/>
      <phase duration="5.17723840479" state="yyrrr"/>
      <phase duration="5.38184130004" state="rrGGG"/>
      <phase duration="5.17723840479" state="rryyy"/>
   </tlLogic>
   <tlLogic id="1271504795" offset="0" programID="0" type="static">
      <phase duration="25.9256965454" state="G"/>
      <phase duration="3.92494403196" state="y"/>
   </tlLogic>
   <tlLogic id="1271504797" offset="0" programID="0" type="static">
      <phase duration="24.800634374" state="Gr"/>
      <phase duration="7.10370389149" state="yr"/>
      <phase duration="24.800634374" state="rG"/>
      <phase duration="7.10370389149" state="ry"/>
   </tlLogic>
   <tlLogic id="1271504801" offset="0" programID="0" type="static">
      <phase duration="19.4269402923" state="G"/>
      <phase duration="7.64032265355" state="y"/>
   </tlLogic>
   <tlLogic id="1271504812" offset="0" programID="0" type="static">
      <phase duration="17.7431830503" state="G"/>
      <phase duration="9.09319291603" state="y"/>
   </tlLogic>
   <tlLogic id="1271504813" offset="0" programID="0" type="static">
      <phase duration="14.916559441" state="G"/>
      <phase duration="9.44699706022" state="y"/>
   </tlLogic>
   <tlLogic id="1271504814" offset="0" programID="0" type="static">
      <phase duration="5.27420024731" state="G"/>
      <phase duration="6.11777046109" state="y"/>
   </tlLogic>
   <tlLogic id="1271504815" offset="0" programID="0" type="static">
      <phase duration="23.1694007355" state="Gr"/>
      <phase duration="8.90792520245" state="yr"/>
      <phase duration="23.1694007355" state="rG"/>
      <phase duration="8.90792520245" state="ry"/>
   </tlLogic>
   <tlLogic id="1271504816" offset="0" programID="0" type="static">
      <phase duration="16.7883032294" state="G"/>
      <phase duration="7.35042545012" state="y"/>
   </tlLogic>
   <tlLogic id="1271504817" offset="0" programID="0" type="static">
      <phase duration="33.0894824949" state="G"/>
      <phase duration="8.44054545874" state="y"/>
   </tlLogic>
   <tlLogic id="1271504824" offset="0" programID="0" type="static">
      <phase duration="11.4498466193" state="G"/>
      <phase duration="9.20209636175" state="y"/>
   </tlLogic>
   <tlLogic id="1271504827" offset="0" programID="0" type="static">
      <phase duration="18.9724908098" state="Gr"/>
      <phase duration="6.91174277811" state="yr"/>
      <phase duration="18.9724908098" state="rG"/>
      <phase duration="6.91174277811" state="ry"/>
   </tlLogic>
   <tlLogic id="1271504828" offset="0" programID="0" type="static">
      <phase duration="19.3824070855" state="GGrrr"/>
      <phase duration="5.8490091612" state="yyrrr"/>
      <phase duration="19.3824070855" state="rrGrr"/>
      <phase duration="5.8490091612" state="rryrr"/>
      <phase duration="19.3824070855" state="rrrGG"/>
      <phase duration="5.8490091612" state="rrryy"/>
   </tlLogic>
   <tlLogic id="1271504829" offset="0" programID="0" type="static">
      <phase duration="14.7326578157" state="Gr"/>
      <phase duration="5.88052327004" state="yr"/>
      <phase duration="14.7326578157" state="rG"/>
      <phase duration="5.88052327004" state="ry"/>
   </tlLogic>
   <tlLogic id="1271504830" offset="0" programID="0" type="static">
      <phase duration="20.8443469958" state="GGrrr"/>
      <phase duration="6.27118436041" state="yyrrr"/>
      <phase duration="20.8443469958" state="rrGrr"/>
      <phase duration="6.27118436041" state="rryrr"/>
      <phase duration="20.8443469958" state="rrrGG"/>
      <phase duration="6.27118436041" state="rrryy"/>
   </tlLogic>
   <tlLogic id="1271504832" offset="0" programID="0" type="static">
      <phase duration="17.6929751383" state="Gr"/>
      <phase duration="8.58826275663" state="yr"/>
      <phase duration="17.6929751383" state="rG"/>
      <phase duration="8.58826275663" state="ry"/>
   </tlLogic>
   <tlLogic id="1271504834" offset="0" programID="0" type="static">
      <phase duration="21.9250892498" state="G"/>
      <phase duration="9.96557724428" state="y"/>
   </tlLogic>
   <tlLogic id="1271504841" offset="0" programID="0" type="static">
      <phase duration="18.559708455" state="G"/>
      <phase duration="6.97429314047" state="y"/>
   </tlLogic>
   <tlLogic id="1271504843" offset="0" programID="0" type="static">
      <phase duration="19.5878028538" state="Gr"/>
      <phase duration="5.27669533309" state="yr"/>
      <phase duration="19.5878028538" state="rG"/>
      <phase duration="5.27669533309" state="ry"/>
   </tlLogic>
   <tlLogic id="1271504845" offset="0" programID="0" type="static">
      <phase duration="25.1337559111" state="G"/>
      <phase duration="4.97287855583" state="y"/>
   </tlLogic>
   <tlLogic id="1271504850" offset="0" programID="0" type="static">
      <phase duration="32.0821656922" state="Gr"/>
      <phase duration="1.32295308633" state="yr"/>
      <phase duration="32.0821656922" state="rG"/>
      <phase duration="1.32295308633" state="ry"/>
   </tlLogic>
   <tlLogic id="1271504861" offset="0" programID="0" type="static">
      <phase duration="21.3900817789" state="G"/>
      <phase duration="9.91615034066" state="y"/>
   </tlLogic>
   <tlLogic id="1271504863" offset="0" programID="0" type="static">
      <phase duration="20.0154113482" state="G"/>
      <phase duration="9.21789207759" state="y"/>
   </tlLogic>
   <tlLogic id="1271504867" offset="0" programID="0" type="static">
      <phase duration="24.2968470925" state="G"/>
      <phase duration="9.4827395875" state="y"/>
   </tlLogic>
   <tlLogic id="1271504870" offset="0" programID="0" type="static">
      <phase duration="24.1186052363" state="G"/>
      <phase duration="7.29772221004" state="y"/>
   </tlLogic>
   <tlLogic id="1271504871" offset="0" programID="0" type="static">
      <phase duration="7.31716840976" state="GGrr"/>
      <phase duration="5.73997781714" state="yyrr"/>
      <phase duration="7.31716840976" state="rrGG"/>
      <phase duration="5.73997781714" state="rryy"/>
   </tlLogic>
   <tlLogic id="1271504872" offset="0" programID="0" type="static">
      <phase duration="18.2598534262" state="G"/>
      <phase duration="6.81683375894" state="y"/>
   </tlLogic>
   <tlLogic id="1271504873" offset="0" programID="0" type="static">
      <phase duration="4.84240229868" state="GGrrr"/>
      <phase duration="3.91457836076" state="yyrrr"/>
      <phase duration="4.84240229868" state="rrGrr"/>
      <phase duration="3.91457836076" state="rryrr"/>
      <phase duration="4.84240229868" state="rrrGG"/>
      <phase duration="3.91457836076" state="rrryy"/>
   </tlLogic>
   <tlLogic id="1271504874" offset="0" programID="0" type="static">
      <phase duration="23.4984393215" state="G"/>
      <phase duration="7.11559386221" state="y"/>
   </tlLogic>
   <tlLogic id="1271504876" offset="0" programID="0" type="static">
      <phase duration="28.6893591818" state="G"/>
      <phase duration="4.42284714098" state="y"/>
   </tlLogic>
   <tlLogic id="1271504881" offset="0" programID="0" type="static">
      <phase duration="22.4922014119" state="GGrrr"/>
      <phase duration="4.65366638241" state="yyrrr"/>
      <phase duration="22.4922014119" state="rrGrr"/>
      <phase duration="4.65366638241" state="rryrr"/>
      <phase duration="22.4922014119" state="rrrGG"/>
      <phase duration="4.65366638241" state="rrryy"/>
   </tlLogic>
   <tlLogic id="1271504884" offset="0" programID="0" type="static">
      <phase duration="28.663906774" state="G"/>
      <phase duration="9.70303067288" state="y"/>
   </tlLogic>
   <tlLogic id="1271504887" offset="0" programID="0" type="static">
      <phase duration="26.1230929784" state="G"/>
      <phase duration="6.26823637285" state="y"/>
   </tlLogic>
   <tlLogic id="1271504889" offset="0" programID="0" type="static">
      <phase duration="35.4256903749" state="Gr"/>
      <phase duration="8.62602471565" state="yr"/>
      <phase duration="35.4256903749" state="rG"/>
      <phase duration="8.62602471565" state="ry"/>
   </tlLogic>
   <tlLogic id="1271504891" offset="0" programID="0" type="static">
      <phase duration="19.2344756716" state="G"/>
      <phase duration="9.94114506906" state="y"/>
   </tlLogic>
   <tlLogic id="1271504895" offset="0" programID="0" type="static">
      <phase duration="21.6737606572" state="GGrrr"/>
      <phase duration="7.07562419253" state="yyrrr"/>
      <phase duration="21.6737606572" state="rrGrr"/>
      <phase duration="7.07562419253" state="rryrr"/>
      <phase duration="21.6737606572" state="rrrGG"/>
      <phase duration="7.07562419253" state="rrryy"/>
   </tlLogic>
   <tlLogic id="1271504898" offset="0" programID="0" type="static">
      <phase duration="28.8956270863" state="Gr"/>
      <phase duration="6.96325132647" state="yr"/>
      <phase duration="28.8956270863" state="rG"/>
      <phase duration="6.96325132647" state="ry"/>
   </tlLogic>
   <tlLogic id="1271504899" offset="0" programID="0" type="static">
      <phase duration="16.6573688821" state="G"/>
      <phase duration="5.55628133506" state="y"/>
   </tlLogic>
   <tlLogic id="1271504901" offset="0" programID="0" type="static">
      <phase duration="27.2364861845" state="GGrrr"/>
      <phase duration="4.74942453953" state="yyrrr"/>
      <phase duration="27.2364861845" state="rrGrr"/>
      <phase duration="4.74942453953" state="rryrr"/>
      <phase duration="27.2364861845" state="rrrGG"/>
      <phase duration="4.74942453953" state="rrryy"/>
   </tlLogic>
   <tlLogic id="1271504904" offset="0" programID="0" type="static">
      <phase duration="23.5048876904" state="Grr"/>
      <phase duration="9.81814001173" state="yrr"/>
      <phase duration="23.5048876904" state="rGG"/>
      <phase duration="9.81814001173" state="ryy"/>
   </tlLogic>
   <tlLogic id="1271504905" offset="0" programID="0" type="static">
      <phase duration="36.8401714695" state="G"/>
      <phase duration="8.48296869529" state="y"/>
   </tlLogic>
   <tlLogic id="1271504910" offset="0" programID="0" type="static">
      <phase duration="10.0755176608" state="Gr"/>
      <phase duration="8.19281664239" state="yr"/>
      <phase duration="10.0755176608" state="rG"/>
      <phase duration="8.19281664239" state="ry"/>
   </tlLogic>
   <tlLogic id="1298727142" offset="0" programID="0" type="static">
      <phase duration="18.211297115" state="Gr"/>
      <phase duration="7.02591208731" state="yr"/>
      <phase duration="18.211297115" state="rG"/>
      <phase duration="7.02591208731" state="ry"/>
   </tlLogic>
   <tlLogic id="1299369678" offset="0" programID="0" type="static">
      <phase duration="30.1996819901" state="G"/>
      <phase duration="9.8156927177" state="y"/>
   </tlLogic>
   <tlLogic id="1299369684" offset="0" programID="0" type="static">
      <phase duration="20.6339831975" state="G"/>
      <phase duration="2.02200131198" state="y"/>
   </tlLogic>
   <tlLogic id="1299369686" offset="0" programID="0" type="static">
      <phase duration="35.1725174319" state="G"/>
      <phase duration="5.87008280976" state="y"/>
   </tlLogic>
   <tlLogic id="1299369689" offset="0" programID="0" type="static">
      <phase duration="15.6434110504" state="GGrrr"/>
      <phase duration="6.58928491383" state="yyrrr"/>
      <phase duration="15.6434110504" state="rrGrr"/>
      <phase duration="6.58928491383" state="rryrr"/>
      <phase duration="15.6434110504" state="rrrGG"/>
      <phase duration="6.58928491383" state="rrryy"/>
   </tlLogic>
   <tlLogic id="1299369697" offset="0" programID="0" type="static">
      <phase duration="17.9708202442" state="G"/>
      <phase duration="8.16746378943" state="y"/>
   </tlLogic>
   <tlLogic id="1312440715" offset="0" programID="0" type="static">
      <phase duration="23.4137578731" state="Gr"/>
      <phase duration="5.18336766132" state="yr"/>
      <phase duration="23.4137578731" state="rG"/>
      <phase duration="5.18336766132" state="ry"/>
   </tlLogic>
   <tlLogic id="1312812204" offset="0" programID="0" type="static">
      <phase duration="20.4088857057" state="G"/>
      <phase duration="4.34792832254" state="y"/>
   </tlLogic>
   <tlLogic id="1353566368" offset="0" programID="0" type="static">
      <phase duration="24.9297169887" state="G"/>
      <phase duration="4.57084416349" state="y"/>
   </tlLogic>
   <tlLogic id="1366801185" offset="0" programID="0" type="static">
      <phase duration="28.043436302" state="G"/>
      <phase duration="4.28313798699" state="y"/>
   </tlLogic>
   <tlLogic id="1366801190" offset="0" programID="0" type="static"/>
   <tlLogic id="1366801217" offset="0" programID="0" type="static">
      <phase duration="23.9435027047" state="G"/>
      <phase duration="5.17328288855" state="y"/>
   </tlLogic>
   <tlLogic id="1366801221" offset="0" programID="0" type="static">
      <phase duration="18.4289250205" state="Gr"/>
      <phase duration="8.93401608593" state="yr"/>
      <phase duration="18.4289250205" state="rG"/>
      <phase duration="8.93401608593" state="ry"/>
   </tlLogic>
   <tlLogic id="1366801262" offset="0" programID="0" type="static">
      <phase duration="16.3854686484" state="G"/>
      <phase duration="9.63415394036" state="y"/>
   </tlLogic>
   <tlLogic id="1492679678" offset="0" programID="0" type="static">
      <phase duration="23.1365950186" state="Gr"/>
      <phase duration="3.07409256998" state="yr"/>
      <phase duration="23.1365950186" state="rG"/>
      <phase duration="3.07409256998" state="ry"/>
   </tlLogic>
   <tlLogic id="1492679687" offset="0" programID="0" type="static">
      <phase duration="16.3055182446" state="Gr"/>
      <phase duration="2.85543658384" state="yr"/>
      <phase duration="16.3055182446" state="rG"/>
      <phase duration="2.85543658384" state="ry"/>
   </tlLogic>
   <tlLogic id="1492679688" offset="0" programID="0" type="static">
      <phase duration="15.2132020722" state="G"/>
      <phase duration="9.26845725473" state="y"/>
   </tlLogic>
   <tlLogic id="1492679696" offset="0" programID="0" type="static">
      <phase duration="38.1242343917" state="Gr"/>
      <phase duration="4.03055962289" state="yr"/>
      <phase duration="38.1242343917" state="rG"/>
      <phase duration="4.03055962289" state="ry"/>
   </tlLogic>
   <tlLogic id="1492679718" offset="0" programID="0" type="static"/>
   <tlLogic id="1492679723" offset="0" programID="0" type="static">
      <phase duration="23.1540819046" state="GGrrr"/>
      <phase duration="6.29886670003" state="yyrrr"/>
      <phase duration="23.1540819046" state="rrGrr"/>
      <phase duration="6.29886670003" state="rryrr"/>
      <phase duration="23.1540819046" state="rrrGG"/>
      <phase duration="6.29886670003" state="rrryy"/>
   </tlLogic>
   <tlLogic id="1492679738" offset="0" programID="0" type="static">
      <phase duration="31.2805660533" state="G"/>
      <phase duration="9.31924648892" state="y"/>
   </tlLogic>
   <tlLogic id="1492679749" offset="0" programID="0" type="static">
      <phase duration="30.5940503392" state="GGrrr"/>
      <phase duration="6.23845814902" state="yyrrr"/>
      <phase duration="30.5940503392" state="rrGGr"/>
      <phase duration="6.23845814902" state="rryyr"/>
      <phase duration="30.5940503392" state="rrrrG"/>
      <phase duration="6.23845814902" state="rrrry"/>
   </tlLogic>
   <tlLogic id="1492729097" offset="0" programID="0" type="static">
      <phase duration="27.5730640032" state="Gr"/>
      <phase duration="8.65352051921" state="yr"/>
      <phase duration="27.5730640032" state="rG"/>
      <phase duration="8.65352051921" state="ry"/>
   </tlLogic>
   <tlLogic id="1492802030" offset="0" programID="0" type="static">
      <phase duration="34.0418159906" state="GGrr"/>
      <phase duration="9.55704207828" state="yyrr"/>
      <phase duration="34.0418159906" state="rrGG"/>
      <phase duration="9.55704207828" state="rryy"/>
   </tlLogic>
   <tlLogic id="1492802032" offset="0" programID="0" type="static">
      <phase duration="10.4513386134" state="G"/>
      <phase duration="6.61116026536" state="y"/>
   </tlLogic>
   <tlLogic id="1492802065" offset="0" programID="0" type="static">
      <phase duration="19.9520204301" state="G"/>
      <phase duration="7.1360744304" state="y"/>
   </tlLogic>
   <tlLogic id="1492802067" offset="0" programID="0" type="static">
      <phase duration="25.6906249477" state="G"/>
      <phase duration="7.40868691959" state="y"/>
   </tlLogic>
   <tlLogic id="1492802068" offset="0" programID="0" type="static">
      <phase duration="23.710193307" state="Gr"/>