<?xml version="1.0" ?>
<tlLogics>
   <tlLogic id="1000099468" offset="0" programID="0" type="static">
      <phase duration="18.3014698149" state="G"/>
      <phase duration="2.74650030781" state="y"/>
   </tlLogic>
   <tlLogic id="1000099475" offset="0" programID="0" type="static">
      <phase duration="3.08534399101" state="GG"/>
      <phase duration="9.40167604766" state="yy"/>
   </tlLogic>
   <tlLogic id="1000099503" offset="0" programID="0" type="static">
      <phase duration="25.6323934329" state="GGGrrrrrrrr"/>
      <phase duration="9.54530666773" state="yyyrrrrrrrr"/>
      <phase duration="25.6323934329" state="rrrGGGrrrrr"/>
      <phase duration="9.54530666773" state="rrryyyrrrrr"/>
      <phase duration="25.6323934329" state="rrrrrrGGGGG"/>
      <phase duration="9.54530666773" state="rrrrrryyyyy"/>
   </tlLogic>
   <tlLogic id="1000099520" offset="0" programID="0" type="static">
      <phase duration="20.6374498014" state="G"/>
      <phase duration="6.48168493459" state="y"/>
   </tlLogic>
   <tlLogic id="1000099553" offset="0" programID="0" type="static">
      <phase duration="13.5064838121" state="Gr"/>
      <phase duration="5.20106881935" state="yr"/>
      <phase duration="13.5064838121" state="rG"/>
      <phase duration="5.20106881935" state="ry"/>
   </tlLogic>
   <tlLogic id="1000099591" offset="0" programID="0" type="static">
      <phase duration="16.6769364138" state="GGrr"/>
      <phase duration="9.38215063484" state="yyrr"/>
      <phase duration="16.6769364138" state="rrGG"/>
      <phase duration="9.38215063484" state="rryy"/>
   </tlLogic>
   <tlLogic id="1000099607" offset="0" programID="0" type="static">
      <phase duration="22.9355036785" state="GGr"/>
      <phase duration="10.0" state="yyr"/>
      <phase duration="22.9355036785" state="rrG"/>
      <phase duration="10.0" state="rry"/>
   </tlLogic>
   <tlLogic id="1000099650" offset="0" programID="0" type="static">
      <phase duration="23.0908137305" state="G"/>
      <phase duration="3.43369074008" state="y"/>
   </tlLogic>
   <tlLogic id="1000099651" offset="0" programID="0" type="static">
      <phase duration="21.3915338939" state="GGrrrr"/>
      <phase duration="8.66455571147" state="yyrrrr"/>
      <phase duration="21.3915338939" state="rrGGrr"/>
      <phase duration="8.66455571147" state="rryyrr"/>
      <phase duration="21.3915338939" state="rrrrGG"/>
      <phase duration="8.66455571147" state="rrrryy"/>
   </tlLogic>
   <tlLogic id="1000099724" offset="0" programID="0" type="static">
      <phase duration="24.3278639466" state="Grrr"/>
      <phase duration="2.68091288718" state="yrrr"/>
      <phase duration="24.3278639466" state="rGGG"/>
      <phase duration="2.68091288718" state="ryyy"/>
   </tlLogic>
   <tlLogic id="1000099741" offset="0" programID="0" type="static">
      <phase duration="10.2959593184" state="GGrr"/>
      <phase duration="4.0" state="yyrr"/>
      <phase duration="10.2959593184" state="rrGG"/>
      <phase duration="4.0" state="rryy"/>
   </tlLogic>
   <tlLogic id="1000099788" offset="0" programID="0" type="static">
      <phase duration="34.5521873364" state="GGrr"/>
      <phase duration="3.66541561553" state="yyrr"/>
      <phase duration="34.5521873364" state="rrGG"/>
      <phase duration="3.66541561553" state="rryy"/>
   </tlLogic>
   <tlLogic id="1012321580" offset="0" programID="0" type="static">
      <phase duration="27.2897103044" state="Gr"/>
      <phase duration="6.66030624071" state="yr"/>
      <phase duration="27.2897103044" state="rG"/>
      <phase duration="6.66030624071" state="ry"/>
   </tlLogic>
   <tlLogic id="1012326820" offset="0" programID="0" type="static">
      <phase duration="15.468688108" state="G"/>
      <phase duration="9.46801174521" state="y"/>
   </tlLogic>
   <tlLogic id="1028832536" offset="0" programID="0" type="static"/>
   <tlLogic id="1037290808" offset="0" programID="0" type="static">
      <phase duration="10.1001820888" state="GGGrrrrrr"/>
      <phase duration="8.45055378692" state="yyyrrrrrr"/>
      <phase duration="10.1001820888" state="rrrGGGrrr"/>
      <phase duration="8.45055378692" state="rrryyyrrr"/>
      <phase duration="10.1001820888" state="rrrrrrGGG"/>
      <phase duration="8.45055378692" state="rrrrrryyy"/>
   </tlLogic>
   <tlLogic id="1037290822" offset="0" programID="0" type="static">
      <phase duration="25.6961434372" state="GGrr"/>
      <phase duration="6.22659326781" state="yyrr"/>
      <phase duration="25.6961434372" state="rrGG"/>
      <phase duration="6.22659326781" state="rryy"/>
   </tlLogic>
   <tlLogic id="1037290889" offset="0" programID="0" type="static">
      <phase duration="20.1761557858" state="GGrr"/>
      <phase duration="3.69587346484" state="yyrr"/>
      <phase duration="20.1761557858" state="rrGG"/>
      <phase duration="3.69587346484" state="rryy"/>
   </tlLogic>
   <tlLogic id="1037290915" offset="0" programID="0" type="static">
      <phase duration="27.9234857344" state="GGrrr"/>
      <phase duration="9.5858381932" state="yyrrr"/>
      <phase duration="27.9234857344" state="rrGGG"/>
      <phase duration="9.5858381932" state="rryyy"/>
   </tlLogic>
   <tlLogic id="1040964328" offset="0" programID="0" type="static">
      <phase duration="16.8723821047" state="Gr"/>
      <phase duration="6.53794576838" state="yr"/>
      <phase duration="16.8723821047" state="rG"/>
      <phase duration="6.53794576838" state="ry"/>
   </tlLogic>
   <tlLogic id="1040964333" offset="0" programID="0" type="static">
      <phase duration="18.5305470093" state="Gr"/>
      <phase duration="8.74875806449" state="yr"/>
      <phase duration="18.5305470093" state="rG"/>
      <phase duration="8.74875806449" state="ry"/>
   </tlLogic>
   <tlLogic id="1045044803" offset="0" programID="0" type="static">
      <phase duration="8.88802085264" state="Gr"/>
      <phase duration="6.43883528391" state="yr"/>
      <phase duration="8.88802085264" state="rG"/>
      <phase duration="6.43883528391" state="ry"/>
   </tlLogic>
   <tlLogic id="1045044863" offset="0" programID="0" type="static">
      <phase duration="27.8677725731" state="G"/>
      <phase duration="8.97002190626" state="y"/>
   </tlLogic>
   <tlLogic id="1109589987" offset="0" programID="0" type="static">
      <phase duration="16.3387611369" state="GGrr"/>
      <phase duration="1.87057565026" state="yyrr"/>
      <phase duration="16.3387611369" state="rrGG"/>
      <phase duration="1.87057565026" state="rryy"/>
   </tlLogic>
   <tlLogic id="1123630986" offset="0" programID="0" type="static">
      <phase duration="23.9854485301" state="G"/>
      <phase duration="8.86623165647" state="y"/>
   </tlLogic>
   <tlLogic id="1150667539" offset="0" programID="0" type="static">
      <phase duration="19.9716787102" state="G"/>
      <phase duration="9.07924137965" state="y"/>
   </tlLogic>
   <tlLogic id="1150667540" offset="0" programID="0" type="static">
      <phase duration="23.0" state="G"/>
      <phase duration="7.0" state="y"/>
   </tlLogic>
   <tlLogic id="1150667552" offset="0" programID="0" type="static">
      <phase duration="20.9713310158" state="Gr"/>
      <phase duration="8.48825798957" state="yr"/>
      <phase duration="20.9713310158" state="rG"/>
      <phase duration="8.48825798957" state="ry"/>
   </tlLogic>
   <tlLogic id="1150667560" offset="0" programID="0" type="static">
      <phase duration="7.70396059607" state="G"/>
      <phase duration="6.66484355735" state="y"/>
   </tlLogic>
   <tlLogic id="1150667571" offset="0" programID="0" type="static">
      <phase duration="1.03290790607" state="G"/>
      <phase duration="7.14477740184" state="y"/>
   </tlLogic>
   <tlLogic id="1150667604" offset="0" programID="0" type="static">
      <phase duration="14.8680594313" state="Gr"/>
      <phase duration="2.72344775797" state="yr"/>
      <phase duration="14.8680594313" state="rG"/>
      <phase duration="2.72344775797" state="ry"/>
   </tlLogic>
   <tlLogic id="1150667608" offset="0" programID="0" type="static">
      <phase duration="37.9926042423" state="Gr"/>
      <phase duration="7.3128739148" state="yr"/>
      <phase duration="37.9926042423" state="rG"/>
      <phase duration="7.3128739148" state="ry"/>
   </tlLogic>
   <tlLogic id="1150667622" offset="0" programID="0" type="static">
      <phase duration="24.1729287784" state="G"/>
      <phase duration="5.05367533438" state="y"/>
   </tlLogic>
   <tlLogic id="1156723834" offset="0" programID="0" type="static">
      <phase duration="33.7501496098" state="G"/>
      <phase duration="6.82279530863" state="y"/>
   </tlLogic>
   <tlLogic id="1156723839" offset="0" programID="0" type="static">
      <phase duration="29.7262382246" state="Gr"/>
      <phase duration="4.8245641085" state="yr"/>
      <phase duration="29.7262382246" state="rG"/>
      <phase duration="4.8245641085" state="ry"/>
   </tlLogic>
   <tlLogic id="1200892960" offset="0" programID="0" type="static">
      <phase duration="34.3226908651" state="Gr"/>
      <phase duration="3.52133027854" state="yr"/>
      <phase duration="34.3226908651" state="rG"/>
      <phase duration="3.52133027854" state="ry"/>
   </tlLogic>
   <tlLogic id="1201745377" offset="0" programID="0" type="static">
      <phase duration="18.7899276598" state="G"/>
      <phase duration="10.0" state="y"/>
   </tlLogic>
   <tlLogic id="1211136595" offset="0" programID="0" type="static">
      <phase duration="21.0074377788" state="G"/>
      <phase duration="7.30824553611" state="y"/>
   </tlLogic>
   <tlLogic id="1211136870" offset="0" programID="0" type="static">
      <phase duration="10.4470835281" state="GGrr"/>
      <phase duration="5.21564641567" state="yyrr"/>
      <phase duration="10.4470835281" state="rrGG"/>
      <phase duration="5.21564641567" state="rryy"/>
   </tlLogic>
   <tlLogic id="1220020505" offset="0" programID="0" type="static">
      <phase duration="16.5500295972" state="G"/>
      <phase duration="8.53766038876" state="y"/>
   </tlLogic>
   <tlLogic id="1220020545" offset="0" programID="0" type="static">
      <phase duration="39.3879358991" state="GGrrr"/>
      <phase duration="6.34713762817" state="yyrrr"/>
      <phase duration="39.3879358991" state="rrGrr"/>
      <phase duration="6.34713762817" state="rryrr"/>
      <phase duration="39.3879358991" state="rrrGG"/>
      <phase duration="6.34713762817" state="rrryy"/>
   </tlLogic>
   <tlLogic id="1220020588" offset="0" programID="0" type="static">
      <phase duration="8.81071192179" state="GGrr"/>
      <phase duration="10.0" state="yyrr"/>
      <phase duration="8.81071192179" state="rrGG"/>
      <phase duration="10.0" state="rryy"/>
   </tlLogic>
   <tlLogic id="1220020592" offset="0" programID="0" type="static">
      <phase duration="33.1554169132" state="Gr"/>
      <phase duration="2.14017519831" state="yr"/>
      <phase duration="33.1554169132" state="rG"/>
      <phase duration="2.14017519831" state="ry"/>
   </tlLogic>
   <tlLogic id="1220020630" offset="0" programID="0" type="static">
      <phase duration="8.38985318233" state="Gr"/>
      <phase duration="9.49158351912" state="yr"/>
      <phase duration="8.38985318233" state="rG"/>
      <phase duration="9.49158351912" state="ry"/>
   </tlLogic>
   <tlLogic id="1220020673" offset="0" programID="0" type="static">
      <phase duration="38.846416603" state="GGGrrrrrr"/>
      <phase duration="9.29057198304" state="yyyrrrrrr"/>
      <phase duration="38.846416603" state="rrrGGGrrr"/>
      <phase duration="9.29057198304" state="rrryyyrrr"/>
      <phase duration="38.846416603" state="rrrrrrGGG"/>
      <phase duration="9.29057198304" state="rrrrrryyy"/>
   </tlLogic>
   <tlLogic id="1229522509" offset="0" programID="0" type="static">
      <phase duration="6.77772488365" state="G"/>
      <phase duration="9.84698320816" state="y"/>
   </tlLogic>
   <tlLogic id="1229522552" offset="0" programID="0" type="static">
      <phase duration="17.0539556592" state="G"/>
      <phase duration="7.79842351183" state="y"/>
   </tlLogic>
   <tlLogic id="1252265070" offset="0" programID="0" type="static"/>
   <tlLogic id="1252285079" offset="0" programID="0" type="static">
      <phase duration="10.0785758378" state="Gr"/>
      <phase duration="10.0" state="yr"/>
      <phase duration="10.0785758378" state="rG"/>
      <phase duration="10.0" state="ry"/>
   </tlLogic>
   <tlLogic id="1252285082" offset="0" programID="0" type="static">
      <phase duration="28.0785138645" state="G"/>
      <phase duration="9.87672571053" state="y"/>
   </tlLogic>
   <tlLogic id="1252285092" offset="0" programID="0" type="static">
      <phase duration="3.39360653186" state="G"/>
      <phase duration="10.0" state="y"/>
   </tlLogic>
   <tlLogic id="1252285093" offset="0" programID="0" type="static">
      <phase duration="15.973081548" state="Gr"/>
      <phase duration="8.68260093135" state="yr"/>
      <phase duration="15.973081548" state="rG"/>
      <phase duration="8.68260093135" state="ry"/>
   </tlLogic>
   <tlLogic id="1252285137" offset="0" programID="0" type="static">
      <phase duration="24.5993897588" state="Gr"/>
      <phase duration="9.0503525895" state="yr"/>
      <phase duration="24.5993897588" state="rG"/>
      <phase duration="9.0503525895" state="ry"/>
   </tlLogic>
   <tlLogic id="1252285138" offset="0" programID="0" type="static">
      <phase duration="28.431492186" state="G"/>
      <phase duration="3.60951258276" state="y"/>
   </tlLogic>
   <tlLogic id="1252285140" offset="0" programID="0" type="static">
      <phase duration="19.8213285352" state="Gr"/>
      <phase duration="7.62430235924" state="yr"/>
      <phase duration="19.8213285352" state="rG"/>
      <phase duration="7.62430235924" state="ry"/>
   </tlLogic>
   <tlLogic id="1258258237" offset="0" programID="0" type="static">
      <phase duration="10.8052159565" state="GGr"/>
      <phase duration="4.89075074997" state="yyr"/>
      <phase duration="10.8052159565" state="rrG"/>
      <phase duration="4.89075074997" state="rry"/>
   </tlLogic>
   <tlLogic id="1271504743" offset="0" programID="0" type="static">
      <phase duration="24.9692731396" state="G"/>
      <phase duration="8.24221593957" state="y"/>
   </tlLogic>
   <tlLogic id="1271504747" offset="0" programID="0" type="static">
      <phase duration="15.9781218525" state="Gr"/>
      <phase duration="3.229796126" state="yr"/>
      <phase duration="15.9781218525" state="rG"/>
      <phase duration="3.229796126" state="ry"/>
   </tlLogic>
   <tlLogic id="1271504757" offset="0" programID="0" type="static">
      <phase duration="17.6820922655" state="GGrrr"/>
      <phase duration="3.84929816463" state="yyrrr"/>
      <phase duration="17.6820922655" state="rrGrr"/>
      <phase duration="3.84929816463" state="rryrr"/>
      <phase duration="17.6820922655" state="rrrGG"/>
      <phase duration="3.84929816463" state="rrryy"/>
   </tlLogic>
   <tlLogic id="1271504758" offset="0" programID="0" type="static">
      <phase duration="13.4670671694" state="G"/>
      <phase duration="4.07005525624" state="y"/>
   </tlLogic>
   <tlLogic id="1271504763" offset="0" programID="0" type="static">
      <phase duration="11.3731709198" state="G"/>
      <phase duration="9.14547898257" state="y"/>
   </tlLogic>
   <tlLogic id="1271504766" offset="0" programID="0" type="static">
      <phase duration="27.9960404674" state="Gr"/>
      <phase duration="8.61590595254" state="yr"/>
      <phase duration="27.9960404674" state="rG"/>
      <phase duration="8.61590595254" state="ry"/>
   </tlLogic>
   <tlLogic id="1271504767" offset="0" programID="0" type="static">
      <phase duration="26.2489434624" state="G"/>
      <phase duration="8.00621078971" state="y"/>
   </tlLogic>
   <tlLogic id="1271504768" offset="0" programID="0" type="static">
      <phase duration="13.7608091127" state="Gr"/>
      <phase duration="10.0" state="yr"/>
      <phase duration="13.7608091127" state="rG"/>
      <phase duration="10.0" state="ry"/>
   </tlLogic>
   <tlLogic id="1271504774" offset="0" programID="0" type="static">
      <phase duration="27.6687792218" state="G"/>
      <phase duration="10.0" state="y"/>
   </tlLogic>
   <tlLogic id="1271504775" offset="0" programID="0" type="static">
      <phase duration="19.7816909189" state="Gr"/>
      <phase duration="9.12950598139" state="yr"/>
      <phase duration="19.7816909189" state="rG"/>
      <phase duration="9.12950598139" state="ry"/>
   </tlLogic>
   <tlLogic id="1271504783" offset="0" programID="0" type="static">
      <phase duration="6.83232556338" state="Gr"/>
      <phase duration="6.40322999732" state="yr"/>
      <phase duration="6.83232556338" state="rG"/>
      <phase duration="6.40322999732" state="ry"/>
   </tlLogic>
   <tlLogic id="1271504801" offset="0" programID="0" type="static">
      <phase duration="27.414790592" state="G"/>
      <phase duration="10.0" state="y"/>
   </tlLogic>
   <tlLogic id="1271504803" offset="0" programID="0" type="static">
      <phase duration="11.6891564065" state="G"/>
      <phase duration="2.76917131706" state="y"/>
   </tlLogic>
   <tlLogic id="1271504804" offset="0" programID="0" type="static">
      <phase duration="35.0" state="Gr"/>
      <phase duration="5.15807799866" state="yr"/>
      <phase duration="35.0" state="rG"/>
      <phase duration="5.15807799866" state="ry"/>
   </tlLogic>
   <tlLogic id="1271504814" offset="0" programID="0" type="static">
      <phase duration="11.5082398402" state="G"/>
      <phase duration="10.0" state="y"/>
   </tlLogic>
   <tlLogic id="1271504815" offset="0" programID="0" type="static">
      <phase duration="11.2695345512" state="Gr"/>
      <phase duration="7.36300363493" state="yr"/>
      <phase duration="11.2695345512" state="rG"/>
      <phase duration="7.36300363493" state="ry"/>
   </tlLogic>
   <tlLogic id="1271504819" offset="0" programID="0" type="static">
      <phase duration="5.93595380928" state="Gr"/>
      <phase duration="8.84792637802" state="yr"/>
      <phase duration="5.93595380928" state="rG"/>
      <phase duration="8.84792637802" state="ry"/>
   </tlLogic>
   <tlLogic id="1271504822" offset="0" programID="0" type="static">
      <phase duration="12.4914321874" state="G"/>
      <phase duration="10.0" state="y"/>
   </tlLogic>
   <tlLogic id="1271504823" offset="0" programID="0" type="static">
      <phase duration="29.6449113032" state="G"/>
      <phase duration="9.71091439116" state="y"/>
   </tlLogic>
   <tlLogic id="1271504824" offset="0" programID="0" type="static">
      <phase duration="22.7942036064" state="G"/>
      <phase duration="10.0" state="y"/>
   </tlLogic>
   <tlLogic id="1271504827" offset="0" programID="0" type="static">
      <phase duration="30.7870998045" state="Gr"/>
      <phase duration="6.65733096252" state="yr"/>
      <phase duration="30.7870998045" state="rG"/>
      <phase duration="6.65733096252" state="ry"/>
   </tlLogic>
   <tlLogic id="1271504829" offset="0" programID="0" type="static">
      <phase duration="7.25496216666" state="Gr"/>
      <phase duration="10.0" state="yr"/>
      <phase duration="7.25496216666" state="rG"/>
      <phase duration="10.0" state="ry"/>
   </tlLogic>
   <tlLogic id="1271504830" offset="0" programID="0" type="static">
      <phase duration="20.985754851" state="GGrrr"/>
      <phase duration="9.98298004719" state="yyrrr"/>
      <phase duration="20.985754851" state="rrGrr"/>
      <phase duration="9.98298004719" state="rryrr"/>
      <phase duration="20.985754851" state="rrrGG"/>
      <phase duration="9.98298004719" state="rrryy"/>
   </tlLogic>
   <tlLogic id="1271504841" offset="0" programID="0" type="static">
      <phase duration="37.2093175885" state="G"/>
      <phase duration="2.98637002946" state="y"/>
   </tlLogic>
   <tlLogic id="1271504842" offset="0" programID="0" type="static">
      <phase duration="13.3721068363" state="G"/>
      <phase duration="10.0" state="y"/>
   </tlLogic>
   <tlLogic id="1271504844" offset="0" programID="0" type="static">
      <phase duration="19.6293332298" state="G"/>
      <phase duration="7.77936778136" state="y"/>
   </tlLogic>
   <tlLogic id="1271504845" offset="0" programID="0" type="static">
      <phase duration="34.1628938476" state="G"/>
      <phase duration="8.36020966719" state="y"/>
   </tlLogic>
   <tlLogic id="1271504861" offset="0" programID="0" type="static">
      <phase duration="38.1467212885" state="G"/>
      <phase duration="9.11018467264" state="y"/>
   </tlLogic>
   <tlLogic id="1271504863" offset="0" programID="0" type="static">
      <phase duration="25.9870885558" state="G"/>
      <phase duration="1.4531754054" state="y"/>
   </tlLogic>
   <tlLogic id="1271504867" offset="0" programID="0" type="static">
      <phase duration="27.8132614104" state="G"/>
      <phase duration="5.94127592234" state="y"/>
   </tlLogic>
   <tlLogic id="1271504870" offset="0" programID="0" type="static">
      <phase duration="28.0574889856" state="G"/>
      <phase duration="6.63875861896" state="y"/>
   </tlLogic>
   <tlLogic id="1271504871" offset="0" programID="0" type="static">
      <phase duration="31.3326447879" state="GGrr"/>
      <phase duration="6.36844773233" state="yyrr"/>
      <phase duration="31.3326447879" state="rrGG"/>
      <phase duration="6.36844773233" state="rryy"/>
   </tlLogic>
   <tlLogic id="1271504875" offset="0" programID="0" type="static">
      <phase duration="18.9039736168" state="G"/>
      <phase duration="9.49640800284" state="y"/>
   </tlLogic>
   <tlLogic id="1271504876" offset="0" programID="0" type="static">
      <phase duration="20.9298712478" state="G"/>
      <phase duration="4.81445068266" state="y"/>
   </tlLogic>
   <tlLogic id="1271504881" offset="0" programID="0" type="static">
      <phase duration="38.8916589264" state="GGrrr"/>
      <phase duration="9.20147673" state="yyrrr"/>
      <phase duration="38.8916589264" state="rrGrr"/>
      <phase duration="9.20147673" state="rryrr"/>
      <phase duration="38.8916589264" state="rrrGG"/>
      <phase duration="9.20147673" state="rrryy"/>
   </tlLogic>
   <tlLogic id="1271504884" offset="0" programID="0" type="static">
      <phase duration="21.7734229398" state="G"/>
      <phase duration="8.21944551061" state="y"/>
   </tlLogic>
   <tlLogic id="1271504887" offset="0" programID="0" type="static">
      <phase duration="10.9263506653" state="G"/>
      <phase duration="5.44455620098" state="y"/>
   </tlLogic>
   <tlLogic id="1271504888" offset="0" programID="0" type="static">
      <phase duration="33.0585032764" state="G"/>
      <phase duration="5.72383419362" state="y"/>
   </tlLogic>
   <tlLogic id="1271504889" offset="0" programID="0" type="static">
      <phase duration="18.0289241766" state="Gr"/>
      <phase duration="8.87911677783" state="yr"/>
      <phase duration="18.0289241766" state="rG"/>
      <phase duration="8.87911677783" state="ry"/>
   </tlLogic>
   <tlLogic id="1271504891" offset="0" programID="0" type="static">
      <phase duration="15.8859305394" state="G"/>
      <phase duration="5.97612282541" state="y"/>
   </tlLogic>
   <tlLogic id="1271504893" offset="0" programID="0" type="static">
      <phase duration="14.02648818" state="GGrrr"/>
      <phase duration="7.8880213754" state="yyrrr"/>
      <phase duration="14.02648818" state="rrGrr"/>
      <phase duration="7.8880213754" state="rryrr"/>
      <phase duration="14.02648818" state="rrrGG"/>
      <phase duration="7.8880213754" state="rrryy"/>
   </tlLogic>
   <tlLogic id="1271504905" offset="0" programID="0" type="static">
      <phase duration="26.3399242098" state="G"/>
      <phase duration="1.15880573526" state="y"/>
   </tlLogic>
   <tlLogic id="1271504907" offset="0" programID="0" type="static">
      <phase duration="8.13198870863" state="G"/>
      <phase duration="5.25454381911" state="y"/>
   </tlLogic>
   <tlLogic id="1271504911" offset="0" programID="0" type="static">
      <phase duration="9.71481903707" state="G"/>
      <phase duration="3.39914368866" state="y"/>
   </tlLogic>
   <tlLogic id="1271504913" offset="0" programID="0" type="static">
      <phase duration="31.4416056902" state="GGrrr"/>
      <phase duration="3.21209707171" state="yyrrr"/>
      <phase duration="31.4416056902" state="rrGGr"/>
      <phase duration="3.21209707171" state="rryyr"/>
      <phase duration="31.4416056902" state="rrrrG"/>
      <phase duration="3.21209707171" state="rrrry"/>
   </tlLogic>
   <tlLogic id="1271504918" offset="0" programID="0" type="static">
      <phase duration="19.773762568" state="G"/>
      <phase duration="9.1603169951" state="y"/>
   </tlLogic>
   <tlLogic id="1299369677" offset="0" programID="0" type="static">
      <phase duration="16.6639803232" state="G"/>
      <phase duration="7.62516309973" state="y"/>
   </tlLogic>
   <tlLogic id="1299369678" offset="0" programID="0" type="static">
      <phase duration="39.4949396848" state="G"/>
      <phase duration="5.33926329163" state="y"/>
   </tlLogic>
   <tlLogic id="1299369684" offset="0" programID="0" type="static">
      <phase duration="15.3074196371" state="G"/>
      <phase duration="8.08835195982" state="y"/>
   </tlLogic>
   <tlLogic id="1299369689" offset="0" programID="0" type="static">
      <phase duration="7.37093454666" state="GGrrr"/>
      <phase duration="3.85075367172" state="yyrrr"/>
      <phase duration="7.37093454666" state="rrGrr"/>
      <phase duration="3.85075367172" state="rryrr"/>
      <phase duration="7.37093454666" state="rrrGG"/>
      <phase duration="3.85075367172" state="rrryy"/>
   </tlLogic>
   <tlLogic id="1299369691" offset="0" programID="0" type="static">
      <phase duration="10.6775000668" state="Gr"/>
      <phase duration="3.10595532277" state="yr"/>
      <phase duration="10.6775000668" state="rG"/>
      <phase duration="3.10595532277" state="ry"/>
   </tlLogic>
   <tlLogic id="1299369697" offset="0" programID="0" type="static">
      <phase duration="36.1332210646" state="G"/>
      <phase duration="7.1259834188" state="y"/>
   </tlLogic>
   <tlLogic id="1299369699" offset="0" programID="0" type="static">
      <phase duration="23.7604316826" state="G"/>
      <phase duration="6.43083345066" state="y"/>
   </tlLogic>
   <tlLogic id="1299369701" offset="0" programID="0" type="static">
      <phase duration="26.6341149363" state="GGrrr"/>
      <phase duration="10.0" state="yyrrr"/>
      <phase duration="26.6341149363" state="rrGrr"/>
      <phase duration="10.0" state="rryrr"/>
      <phase duration="26.6341149363" state="rrrGG"/>
      <phase duration="10.0" state="rrryy"/>
   </tlLogic>
   <tlLogic id="1312440715" offset="0" programID="0" type="static">
      <phase duration="16.8856351362" state="Gr"/>
      <phase duration="10.0" state="yr"/>
      <phase duration="16.8856351362" state="rG"/>
      <phase duration="10.0" state="ry"/>
   </tlLogic>
   <tlLogic id="1353566371" offset="0" programID="0" type="static">
      <phase duration="20.30043524" state="G"/>
      <phase duration="9.94016849325" state="y"/>
   </tlLogic>
   <tlLogic id="1360932319" offset="0" programID="0" type="static"/>
   <tlLogic id="1366801174" offset="0" programID="0" type="static">
      <phase duration="22.8544870851" state="G"/>
      <phase duration="6.10137524926" state="y"/>
   </tlLogic>
   <tlLogic id="1366801191" offset="0" programID="0" type="static">
      <phase duration="28.7462314755" state="G"/>
      <phase duration="4.04161720453" state="y"/>
   </tlLogic>
   <tlLogic id="1366801221" offset="0" programID="0" type="static">
      <phase duration="37.316284594" state="Gr"/>
      <phase duration="6.03222201625" state="yr"/>
      <phase duration="37.316284594" state="rG"/>
      <phase duration="6.03222201625" state="ry"/>
   </tlLogic>
   <tlLogic id="1366801267" offset="0" programID="0" type="static">
      <phase duration="13.4510785604" state="Grr"/>
      <phase duration="6.74931805119" state="yrr"/>
      <phase duration="13.4510785604" state="rGr"/>
      <phase duration="6.74931805119" state="ryr"/>
      <phase duration="13.4510785604" state="rrG"/>
      <phase duration="6.74931805119" state="rry"/>
   </tlLogic>
   <tlLogic id="1492679675" offset="0" programID="0" type="static">
      <phase duration="22.0853905899" state="Gr"/>
      <phase duration="9.64422760153" state="yr"/>
      <phase duration="22.0853905899" state="rG"/>
      <phase duration="9.64422760153" state="ry"/>
   </tlLogic>
   <tlLogic id="1492679678" offset="0" programID="0" type="static">
      <phase duration="27.5103169731" state="Gr"/>
      <phase duration="7.36542096518" state="yr"/>
      <phase duration="27.5103169731" state="rG"/>
      <phase duration="7.36542096518" state="ry"/>
   </tlLogic>
   <tlLogic id="1492679681" offset="0" programID="0" type="static">
      <phase duration="10.8513294432" state="G"/>
      <phase duration="6.74760938861" state="y"/>
   </tlLogic>
   <tlLogic id="1492679687" offset="0" programID="0" type="static">
      <phase duration="19.8546856789" state="Gr"/>
      <phase duration="9.36640486352" state="yr"/>
      <phase duration="19.8546856789" state="rG"/>
      <phase duration="9.36640486352" state="ry"/>
   </tlLogic>
   <tlLogic id="1492679688" offset="0" programID="0" type="static">
      <phase duration="32.7118327946" state="G"/>
      <phase duration="6.97550047254" state="y"/>
   </tlLogic>
   <tlLogic id="1492679714" offset="0" programID="0" type="static">
      <phase duration="27.5926184457" state="Gr"/>
      <phase duration="2.31174592229" state="yr"/>
      <phase duration="27.5926184457" state="rG"/>
      <phase duration="2.31174592229" state="ry"/>
   </tlLogic>
   <tlLogic id="1492679718" offset="0" programID="0" type="static"/>
   <tlLogic id="1492679729" offset="0" programID="0" type="static">
      <phase duration="40.0" state="G"/>
      <phase duration="9.23326590587" state="y"/>
   </tlLogic>