<?xml version="1.0" ?>
<tlLogics>
   <tlLogic id="1000099468" offset="0" programID="0" type="static">
      <phase duration="25.4231872249" state="G"/>
      <phase duration="4.2841872055" state="y"/>
   </tlLogic>
   <tlLogic id="1000099503" offset="0" programID="0" type="static">
      <phase duration="20.9857246403" state="GGGrrrrrrrr"/>
      <phase duration="4.5661713021" state="yyyrrrrrrrr"/>
      <phase duration="20.9857246403" state="rrrGGGrrrrr"/>
      <phase duration="4.5661713021" state="rrryyyrrrrr"/>
      <phase duration="20.9857246403" state="rrrrrrGGGGG"/>
      <phase duration="4.5661713021" state="rrrrrryyyyy"/>
   </tlLogic>
   <tlLogic id="1000099520" offset="0" programID="0" type="static">
      <phase duration="14.6528674296" state="G"/>
      <phase duration="4.54124274746" state="y"/>
   </tlLogic>
   <tlLogic id="1000099551" offset="0" programID="0" type="static">
      <phase duration="17.9964333885" state="G"/>
      <phase duration="8.82473898783" state="y"/>
   </tlLogic>
   <tlLogic id="1000099553" offset="0" programID="0" type="static">
      <phase duration="24.0640215464" state="Gr"/>
      <phase duration="8.22532091254" state="yr"/>
      <phase duration="24.0640215464" state="rG"/>
      <phase duration="8.22532091254" state="ry"/>
   </tlLogic>
   <tlLogic id="1000099576" offset="0" programID="0" type="static">
      <phase duration="23.0799554353" state="Grrrr"/>
      <phase duration="8.80985951195" state="yrrrr"/>
      <phase duration="23.0799554353" state="rGGrr"/>
      <phase duration="8.80985951195" state="ryyrr"/>
      <phase duration="23.0799554353" state="rrrGG"/>
      <phase duration="8.80985951195" state="rrryy"/>
   </tlLogic>
   <tlLogic id="1000099591" offset="0" programID="0" type="static">
      <phase duration="18.1618796725" state="GGrr"/>
      <phase duration="9.08741143256" state="yyrr"/>
      <phase duration="18.1618796725" state="rrGG"/>
      <phase duration="9.08741143256" state="rryy"/>
   </tlLogic>
   <tlLogic id="1000099607" offset="0" programID="0" type="static">
      <phase duration="23.9318796458" state="GGr"/>
      <phase duration="4.26668772833" state="yyr"/>
      <phase duration="23.9318796458" state="rrG"/>
      <phase duration="4.26668772833" state="rry"/>
   </tlLogic>
   <tlLogic id="1000099650" offset="0" programID="0" type="static">
      <phase duration="15.6489019032" state="G"/>
      <phase duration="8.67898416645" state="y"/>
   </tlLogic>
   <tlLogic id="1000099724" offset="0" programID="0" type="static">
      <phase duration="24.646384365" state="Grrr"/>
      <phase duration="8.88359206427" state="yrrr"/>
      <phase duration="24.646384365" state="rGGG"/>
      <phase duration="8.88359206427" state="ryyy"/>
   </tlLogic>
   <tlLogic id="1000099741" offset="0" programID="0" type="static">
      <phase duration="23.3594861828" state="GGrr"/>
      <phase duration="7.47568555032" state="yyrr"/>
      <phase duration="23.3594861828" state="rrGG"/>
      <phase duration="7.47568555032" state="rryy"/>
   </tlLogic>
   <tlLogic id="1000099788" offset="0" programID="0" type="static">
      <phase duration="34.0944690306" state="GGrr"/>
      <phase duration="2.55344888619" state="yyrr"/>
      <phase duration="34.0944690306" state="rrGG"/>
      <phase duration="2.55344888619" state="rryy"/>
   </tlLogic>
   <tlLogic id="1012326820" offset="0" programID="0" type="static">
      <phase duration="15.2431143497" state="G"/>
      <phase duration="7.59959122664" state="y"/>
   </tlLogic>
   <tlLogic id="1028832536" offset="0" programID="0" type="static"/>
   <tlLogic id="1037290808" offset="0" programID="0" type="static">
      <phase duration="20.3261208359" state="GGGrrrrrr"/>
      <phase duration="7.3892949907" state="yyyrrrrrr"/>
      <phase duration="20.3261208359" state="rrrGGGrrr"/>
      <phase duration="7.3892949907" state="rrryyyrrr"/>
      <phase duration="20.3261208359" state="rrrrrrGGG"/>
      <phase duration="7.3892949907" state="rrrrrryyy"/>
   </tlLogic>
   <tlLogic id="1037290863" offset="0" programID="0" type="static">
      <phase duration="24.110978265" state="GGrr"/>
      <phase duration="9.15582703517" state="yyrr"/>
      <phase duration="24.110978265" state="rrGG"/>
      <phase duration="9.15582703517" state="rryy"/>
   </tlLogic>
   <tlLogic id="1037290889" offset="0" programID="0" type="static">
      <phase duration="31.5286454593" state="GGrr"/>
      <phase duration="7.35522771501" state="yyrr"/>
      <phase duration="31.5286454593" state="rrGG"/>
      <phase duration="7.35522771501" state="rryy"/>
   </tlLogic>
   <tlLogic id="1037290915" offset="0" programID="0" type="static">
      <phase duration="19.1232409689" state="GGrrr"/>
      <phase duration="6.63028610034" state="yyrrr"/>
      <phase duration="19.1232409689" state="rrGGG"/>
      <phase duration="6.63028610034" state="rryyy"/>
   </tlLogic>
   <tlLogic id="1037290944" offset="0" programID="0" type="static">
      <phase duration="23.2251298606" state="G"/>
      <phase duration="2.53594451638" state="y"/>
   </tlLogic>
   <tlLogic id="1040964328" offset="0" programID="0" type="static">
      <phase duration="16.2159812816" state="Gr"/>
      <phase duration="4.90885215769" state="yr"/>
      <phase duration="16.2159812816" state="rG"/>
      <phase duration="4.90885215769" state="ry"/>
   </tlLogic>
   <tlLogic id="1040964333" offset="0" programID="0" type="static">
      <phase duration="22.7965092321" state="Gr"/>
      <phase duration="5.41254397261" state="yr"/>
      <phase duration="22.7965092321" state="rG"/>
      <phase duration="5.41254397261" state="ry"/>
   </tlLogic>
   <tlLogic id="1045044692" offset="0" programID="0" type="static">
      <phase duration="11.1000472255" state="Gr"/>
      <phase duration="6.18002394076" state="yr"/>
      <phase duration="11.1000472255" state="rG"/>
      <phase duration="6.18002394076" state="ry"/>
   </tlLogic>
   <tlLogic id="1045044750" offset="0" programID="0" type="static">
      <phase duration="21.4196882043" state="Gr"/>
      <phase duration="3.25912074081" state="yr"/>
      <phase duration="21.4196882043" state="rG"/>
      <phase duration="3.25912074081" state="ry"/>
   </tlLogic>
   <tlLogic id="1045044796" offset="0" programID="0" type="static">
      <phase duration="32.89529792" state="Gr"/>
      <phase duration="2.92173821217" state="yr"/>
      <phase duration="32.89529792" state="rG"/>
      <phase duration="2.92173821217" state="ry"/>
   </tlLogic>
   <tlLogic id="1109589944" offset="0" programID="0" type="static">
      <phase duration="6.2848673978" state="GGGrrrrrr"/>
      <phase duration="5.19896940287" state="yyyrrrrrr"/>
      <phase duration="6.2848673978" state="rrrGGGrrr"/>
      <phase duration="5.19896940287" state="rrryyyrrr"/>
      <phase duration="6.2848673978" state="rrrrrrGGG"/>
      <phase duration="5.19896940287" state="rrrrrryyy"/>
   </tlLogic>
   <tlLogic id="1109589987" offset="0" programID="0" type="static">
      <phase duration="15.7657074077" state="GGrr"/>
      <phase duration="6.82637864901" state="yyrr"/>
      <phase duration="15.7657074077" state="rrGG"/>
      <phase duration="6.82637864901" state="rryy"/>
   </tlLogic>
   <tlLogic id="1125127500" offset="0" programID="0" type="static">
      <phase duration="22.6061899921" state="GG"/>
      <phase duration="2.85435585466" state="yy"/>
   </tlLogic>
   <tlLogic id="1149210260" offset="0" programID="0" type="static">
      <phase duration="22.1931439049" state="Gr"/>
      <phase duration="8.6428773439" state="yr"/>
      <phase duration="22.1931439049" state="rG"/>
      <phase duration="8.6428773439" state="ry"/>
   </tlLogic>
   <tlLogic id="1150667540" offset="0" programID="0" type="static">
      <phase duration="19.0934167357" state="G"/>
      <phase duration="5.77048272979" state="y"/>
   </tlLogic>
   <tlLogic id="1150667552" offset="0" programID="0" type="static">
      <phase duration="17.9629651543" state="Gr"/>
      <phase duration="7.32571683393" state="yr"/>
      <phase duration="17.9629651543" state="rG"/>
      <phase duration="7.32571683393" state="ry"/>
   </tlLogic>
   <tlLogic id="1150667568" offset="0" programID="0" type="static"/>
   <tlLogic id="1150667571" offset="0" programID="0" type="static">
      <phase duration="8.08444247346" state="G"/>
      <phase duration="7.70348703046" state="y"/>
   </tlLogic>
   <tlLogic id="1150667586" offset="0" programID="0" type="static">
      <phase duration="19.6816751893" state="G"/>
      <phase duration="7.76492878289" state="y"/>
   </tlLogic>
   <tlLogic id="1150667603" offset="0" programID="0" type="static">
      <phase duration="11.8751413708" state="Gr"/>
      <phase duration="6.27493813826" state="yr"/>
      <phase duration="11.8751413708" state="rG"/>
      <phase duration="6.27493813826" state="ry"/>
   </tlLogic>
   <tlLogic id="1150667604" offset="0" programID="0" type="static">
      <phase duration="12.8473358629" state="Gr"/>
      <phase duration="6.5619150167" state="yr"/>
      <phase duration="12.8473358629" state="rG"/>
      <phase duration="6.5619150167" state="ry"/>
   </tlLogic>
   <tlLogic id="1150667618" offset="0" programID="0" type="static">
      <phase duration="28.3865192772" state="G"/>
      <phase duration="6.17507332189" state="y"/>
   </tlLogic>
   <tlLogic id="1156723834" offset="0" programID="0" type="static">
      <phase duration="37.0838464861" state="G"/>
      <phase duration="3.29568372988" state="y"/>
   </tlLogic>
   <tlLogic id="1156723839" offset="0" programID="0" type="static">
      <phase duration="17.9679512522" state="Gr"/>
      <phase duration="5.69206064663" state="yr"/>
      <phase duration="17.9679512522" state="rG"/>
      <phase duration="5.69206064663" state="ry"/>
   </tlLogic>
   <tlLogic id="1201745377" offset="0" programID="0" type="static">
      <phase duration="14.8718692671" state="G"/>
      <phase duration="5.90719969395" state="y"/>
   </tlLogic>
   <tlLogic id="1201745399" offset="0" programID="0" type="static"/>
   <tlLogic id="1211136497" offset="0" programID="0" type="static">
      <phase duration="13.5880500524" state="GGrr"/>
      <phase duration="5.2110198163" state="yyrr"/>
      <phase duration="13.5880500524" state="rrGG"/>
      <phase duration="5.2110198163" state="rryy"/>
   </tlLogic>
   <tlLogic id="1211136595" offset="0" programID="0" type="static">
      <phase duration="30.4074054192" state="G"/>
      <phase duration="5.77408933849" state="y"/>
   </tlLogic>
   <tlLogic id="1220020505" offset="0" programID="0" type="static">
      <phase duration="16.1069489214" state="G"/>
      <phase duration="8.37773861523" state="y"/>
   </tlLogic>
   <tlLogic id="1220020545" offset="0" programID="0" type="static">
      <phase duration="25.812687454" state="GGrrr"/>
      <phase duration="3.39479236285" state="yyrrr"/>
      <phase duration="25.812687454" state="rrGrr"/>
      <phase duration="3.39479236285" state="rryrr"/>
      <phase duration="25.812687454" state="rrrGG"/>
      <phase duration="3.39479236285" state="rrryy"/>
   </tlLogic>
   <tlLogic id="1220020630" offset="0" programID="0" type="static">
      <phase duration="19.5524950545" state="Gr"/>
      <phase duration="8.15234372661" state="yr"/>
      <phase duration="19.5524950545" state="rG"/>
      <phase duration="8.15234372661" state="ry"/>
   </tlLogic>
   <tlLogic id="1220020673" offset="0" programID="0" type="static">
      <phase duration="23.2341855678" state="GGGrrrrrr"/>
      <phase duration="9.45637882548" state="yyyrrrrrr"/>
      <phase duration="23.2341855678" state="rrrGGGrrr"/>
      <phase duration="9.45637882548" state="rrryyyrrr"/>
      <phase duration="23.2341855678" state="rrrrrrGGG"/>
      <phase duration="9.45637882548" state="rrrrrryyy"/>
   </tlLogic>
   <tlLogic id="1220020679" offset="0" programID="0" type="static">
      <phase duration="23.9562232353" state="GGrr"/>
      <phase duration="8.17929441553" state="yyrr"/>
      <phase duration="23.9562232353" state="rrGG"/>
      <phase duration="8.17929441553" state="rryy"/>
   </tlLogic>
   <tlLogic id="1229522462" offset="0" programID="0" type="static">
      <phase duration="15.4242538908" state="G"/>
      <phase duration="6.2894052863" state="y"/>
   </tlLogic>
   <tlLogic id="1229522509" offset="0" programID="0" type="static">
      <phase duration="8.86092072713" state="G"/>
      <phase duration="7.4603475048" state="y"/>
   </tlLogic>
   <tlLogic id="1252285079" offset="0" programID="0" type="static">
      <phase duration="24.3488034731" state="Gr"/>
      <phase duration="5.88833169339" state="yr"/>
      <phase duration="24.3488034731" state="rG"/>
      <phase duration="5.88833169339" state="ry"/>
   </tlLogic>
   <tlLogic id="1252285082" offset="0" programID="0" type="static">
      <phase duration="25.4748271856" state="G"/>
      <phase duration="8.51943062041" state="y"/>
   </tlLogic>
   <tlLogic id="1252285092" offset="0" programID="0" type="static">
      <phase duration="7.22415586852" state="G"/>
      <phase duration="5.40082225902" state="y"/>
   </tlLogic>
   <tlLogic id="1252285093" offset="0" programID="0" type="static">
      <phase duration="12.0948361529" state="Gr"/>
      <phase duration="8.03206572797" state="yr"/>
      <phase duration="12.0948361529" state="rG"/>
      <phase duration="8.03206572797" state="ry"/>
   </tlLogic>
   <tlLogic id="1252285137" offset="0" programID="0" type="static">
      <phase duration="20.4229306983" state="Gr"/>
      <phase duration="9.49281870609" state="yr"/>
      <phase duration="20.4229306983" state="rG"/>
      <phase duration="9.49281870609" state="ry"/>
   </tlLogic>
   <tlLogic id="1252285140" offset="0" programID="0" type="static">
      <phase duration="25.6536274649" state="Gr"/>
      <phase duration="8.63268901811" state="yr"/>
      <phase duration="25.6536274649" state="rG"/>
      <phase duration="8.63268901811" state="ry"/>
   </tlLogic>
   <tlLogic id="1258258237" offset="0" programID="0" type="static">
      <phase duration="15.7242190237" state="GGr"/>
      <phase duration="7.80014789406" state="yyr"/>
      <phase duration="15.7242190237" state="rrG"/>
      <phase duration="7.80014789406" state="rry"/>
   </tlLogic>
   <tlLogic id="1271504748" offset="0" programID="0" type="static">
      <phase duration="33.1743669248" state="Gr"/>
      <phase duration="3.8233753291" state="yr"/>
      <phase duration="33.1743669248" state="rG"/>
      <phase duration="3.8233753291" state="ry"/>
   </tlLogic>
   <tlLogic id="1271504757" offset="0" programID="0" type="static">
      <phase duration="21.0565208605" state="GGrrr"/>
      <phase duration="7.7633393611" state="yyrrr"/>
      <phase duration="21.0565208605" state="rrGrr"/>
      <phase duration="7.7633393611" state="rryrr"/>
      <phase duration="21.0565208605" state="rrrGG"/>
      <phase duration="7.7633393611" state="rrryy"/>
   </tlLogic>
   <tlLogic id="1271504763" offset="0" programID="0" type="static">
      <phase duration="7.12565255794" state="G"/>
      <phase duration="5.93894815458" state="y"/>
   </tlLogic>
   <tlLogic id="1271504764" offset="0" programID="0" type="static">
      <phase duration="32.0771324799" state="G"/>
      <phase duration="5.90029056021" state="y"/>
   </tlLogic>
   <tlLogic id="1271504767" offset="0" programID="0" type="static">
      <phase duration="18.7659671609" state="G"/>
      <phase duration="5.62729180961" state="y"/>
   </tlLogic>
   <tlLogic id="1271504768" offset="0" programID="0" type="static">
      <phase duration="16.9384369541" state="Gr"/>
      <phase duration="4.52616326158" state="yr"/>
      <phase duration="16.9384369541" state="rG"/>
      <phase duration="4.52616326158" state="ry"/>
   </tlLogic>
   <tlLogic id="1271504770" offset="0" programID="0" type="static">
      <phase duration="11.8852243851" state="Gr"/>
      <phase duration="5.08178366638" state="yr"/>
      <phase duration="11.8852243851" state="rG"/>
      <phase duration="5.08178366638" state="ry"/>
   </tlLogic>
   <tlLogic id="1271504773" offset="0" programID="0" type="static">
      <phase duration="19.0750798968" state="GGrrr"/>
      <phase duration="9.3120266673" state="yyrrr"/>
      <phase duration="19.0750798968" state="rrGrr"/>
      <phase duration="9.3120266673" state="rryrr"/>
      <phase duration="19.0750798968" state="rrrGG"/>
      <phase duration="9.3120266673" state="rrryy"/>
   </tlLogic>
   <tlLogic id="1271504774" offset="0" programID="0" type="static">
      <phase duration="38.5514517043" state="G"/>
      <phase duration="8.36687430537" state="y"/>
   </tlLogic>
   <tlLogic id="1271504775" offset="0" programID="0" type="static">
      <phase duration="26.1375219278" state="Gr"/>
      <phase duration="5.05626070559" state="yr"/>
      <phase duration="26.1375219278" state="rG"/>
      <phase duration="5.05626070559" state="ry"/>
   </tlLogic>
   <tlLogic id="1271504778" offset="0" programID="0" type="static">
      <phase duration="22.2210876652" state="G"/>
      <phase duration="7.20797902603" state="y"/>
   </tlLogic>
   <tlLogic id="1271504783" offset="0" programID="0" type="static">
      <phase duration="7.29881843855" state="Gr"/>
      <phase duration="3.14147156142" state="yr"/>
      <phase duration="7.29881843855" state="rG"/>
      <phase duration="3.14147156142" state="ry"/>
   </tlLogic>
   <tlLogic id="1271504788" offset="0" programID="0" type="static">
      <phase duration="30.5519705639" state="GGrrr"/>
      <phase duration="9.55241630385" state="yyrrr"/>
      <phase duration="30.5519705639" state="rrGGG"/>
      <phase duration="9.55241630385" state="rryyy"/>
   </tlLogic>
   <tlLogic id="1271504801" offset="0" programID="0" type="static">
      <phase duration="17.6622806912" state="G"/>
      <phase duration="5.42034798689" state="y"/>
   </tlLogic>
   <tlLogic id="1271504803" offset="0" programID="0" type="static">
      <phase duration="17.8408445731" state="G"/>
      <phase duration="4.03202401405" state="y"/>
   </tlLogic>
   <tlLogic id="1271504804" offset="0" programID="0" type="static">
      <phase duration="25.9402137929" state="Gr"/>
      <phase duration="5.17716152108" state="yr"/>
      <phase duration="25.9402137929" state="rG"/>
      <phase duration="5.17716152108" state="ry"/>
   </tlLogic>
   <tlLogic id="1271504814" offset="0" programID="0" type="static">
      <phase duration="16.9420383968" state="G"/>
      <phase duration="3.95957320658" state="y"/>
   </tlLogic>
   <tlLogic id="1271504815" offset="0" programID="0" type="static">
      <phase duration="13.7067316455" state="Gr"/>
      <phase duration="3.7052251489" state="yr"/>
      <phase duration="13.7067316455" state="rG"/>
      <phase duration="3.7052251489" state="ry"/>
   </tlLogic>
   <tlLogic id="1271504819" offset="0" programID="0" type="static">
      <phase duration="9.67884675385" state="Gr"/>
      <phase duration="2.86176309555" state="yr"/>
      <phase duration="9.67884675385" state="rG"/>
      <phase duration="2.86176309555" state="ry"/>
   </tlLogic>
   <tlLogic id="1271504822" offset="0" programID="0" type="static">
      <phase duration="25.6068947567" state="G"/>
      <phase duration="6.64013877859" state="y"/>
   </tlLogic>
   <tlLogic id="1271504827" offset="0" programID="0" type="static">
      <phase duration="21.6502150929" state="Gr"/>
      <phase duration="5.84510974078" state="yr"/>
      <phase duration="21.6502150929" state="rG"/>
      <phase duration="5.84510974078" state="ry"/>
   </tlLogic>
   <tlLogic id="1271504829" offset="0" programID="0" type="static">
      <phase duration="10.6415989591" state="Gr"/>
      <phase duration="6.22999278412" state="yr"/>
      <phase duration="10.6415989591" state="rG"/>
      <phase duration="6.22999278412" state="ry"/>
   </tlLogic>
   <tlLogic id="1271504830" offset="0" programID="0" type="static">
      <phase duration="30.7335527929" state="GGrrr"/>
      <phase duration="5.03826632912" state="yyrrr"/>
      <phase duration="30.7335527929" state="rrGrr"/>
      <phase duration="5.03826632912" state="rryrr"/>
      <phase duration="30.7335527929" state="rrrGG"/>
      <phase duration="5.03826632912" state="rrryy"/>
   </tlLogic>
   <tlLogic id="1271504834" offset="0" programID="0" type="static">
      <phase duration="17.8184947493" state="G"/>
      <phase duration="7.82464862638" state="y"/>
   </tlLogic>
   <tlLogic id="1271504838" offset="0" programID="0" type="static">
      <phase duration="10.5525536742" state="GGrrr"/>
      <phase duration="9.58487576893" state="yyrrr"/>
      <phase duration="10.5525536742" state="rrGGr"/>
      <phase duration="9.58487576893" state="rryyr"/>
      <phase duration="10.5525536742" state="rrrrG"/>
      <phase duration="9.58487576893" state="rrrry"/>
   </tlLogic>
   <tlLogic id="1271504841" offset="0" programID="0" type="static">
      <phase duration="28.7329338124" state="G"/>
      <phase duration="4.1268510499" state="y"/>
   </tlLogic>
   <tlLogic id="1271504842" offset="0" programID="0" type="static">
      <phase duration="22.2701891445" state="G"/>
      <phase duration="4.31456703318" state="y"/>
   </tlLogic>
   <tlLogic id="1271504845" offset="0" programID="0" type="static">
      <phase duration="32.3241195438" state="G"/>
      <phase duration="8.835970153" state="y"/>
   </tlLogic>
   <tlLogic id="1271504849" offset="0" programID="0" type="static">
      <phase duration="26.0500534355" state="GGrrr"/>
      <phase duration="4.46342663446" state="yyrrr"/>
      <phase duration="26.0500534355" state="rrGrr"/>
      <phase duration="4.46342663446" state="rryrr"/>
      <phase duration="26.0500534355" state="rrrGG"/>
      <phase duration="4.46342663446" state="rrryy"/>
   </tlLogic>
   <tlLogic id="1271504850" offset="0" programID="0" type="static">
      <phase duration="14.8975626524" state="Gr"/>
      <phase duration="3.41842750767" state="yr"/>
      <phase duration="14.8975626524" state="rG"/>
      <phase duration="3.41842750767" state="ry"/>
   </tlLogic>
   <tlLogic id="1271504852" offset="0" programID="0" type="static">
      <phase duration="12.0921397446" state="G"/>
      <phase duration="5.15436945038" state="y"/>
   </tlLogic>
   <tlLogic id="1271504855" offset="0" programID="0" type="static">
      <phase duration="14.9718912732" state="Gr"/>
      <phase duration="7.15793712201" state="yr"/>
      <phase duration="14.9718912732" state="rG"/>
      <phase duration="7.15793712201" state="ry"/>
   </tlLogic>
   <tlLogic id="1271504861" offset="0" programID="0" type="static">
      <phase duration="15.006371252" state="G"/>
      <phase duration="1.96517797513" state="y"/>
   </tlLogic>
   <tlLogic id="1271504863" offset="0" programID="0" type="static">
      <phase duration="24.8034861084" state="G"/>
      <phase duration="6.69638059782" state="y"/>
   </tlLogic>
   <tlLogic id="1271504871" offset="0" programID="0" type="static">
      <phase duration="20.4235485019" state="GGrr"/>
      <phase duration="8.66512215159" state="yyrr"/>
      <phase duration="20.4235485019" state="rrGG"/>
      <phase duration="8.66512215159" state="rryy"/>
   </tlLogic>
   <tlLogic id="1271504875" offset="0" programID="0" type="static">
      <phase duration="33.4979976968" state="G"/>
      <phase duration="8.68106723071" state="y"/>
   </tlLogic>
   <tlLogic id="1271504876" offset="0" programID="0" type="static">
      <phase duration="22.892071603" state="G"/>
      <phase duration="5.43292844682" state="y"/>
   </tlLogic>
   <tlLogic id="1271504881" offset="0" programID="0" type="static">
      <phase duration="25.0856541358" state="GGrrr"/>
      <phase duration="8.17253285207" state="yyrrr"/>
      <phase duration="25.0856541358" state="rrGrr"/>
      <phase duration="8.17253285207" state="rryrr"/>
      <phase duration="25.0856541358" state="rrrGG"/>
      <phase duration="8.17253285207" state="rrryy"/>
   </tlLogic>
   <tlLogic id="1271504883" offset="0" programID="0" type="static">
      <phase duration="24.8028864485" state="GGrrr"/>
      <phase duration="7.73939669033" state="yyrrr"/>
      <phase duration="24.8028864485" state="rrGrr"/>
      <phase duration="7.73939669033" state="rryrr"/>
      <phase duration="24.8028864485" state="rrrGG"/>
      <phase duration="7.73939669033" state="rrryy"/>
   </tlLogic>
   <tlLogic id="1271504887" offset="0" programID="0" type="static">
      <phase duration="20.2104696865" state="G"/>
      <phase duration="8.68310876761" state="y"/>
   </tlLogic>
   <tlLogic id="1271504888" offset="0" programID="0" type="static">
      <phase duration="34.1583500078" state="G"/>
      <phase duration="5.06541423043" state="y"/>
   </tlLogic>
   <tlLogic id="1271504889" offset="0" programID="0" type="static">
      <phase duration="22.5463629598" state="Gr"/>
      <phase duration="7.85046443808" state="yr"/>
      <phase duration="22.5463629598" state="rG"/>
      <phase duration="7.85046443808" state="ry"/>
   </tlLogic>
   <tlLogic id="1271504893" offset="0" programID="0" type="static">
      <phase duration="18.3820086267" state="GGrrr"/>
      <phase duration="6.2301790153" state="yyrrr"/>
      <phase duration="18.3820086267" state="rrGrr"/>
      <phase duration="6.2301790153" state="rryrr"/>
      <phase duration="18.3820086267" state="rrrGG"/>
      <phase duration="6.2301790153" state="rrryy"/>
   </tlLogic>
   <tlLogic id="1271504894" offset="0" programID="0" type="static">
      <phase duration="15.3947940406" state="G"/>
      <phase duration="7.59895721494" state="y"/>
   </tlLogic>
   <tlLogic id="1271504899" offset="0" programID="0" type="static">
      <phase duration="17.7584573429" state="G"/>
      <phase duration="8.98522152759" state="y"/>
   </tlLogic>
   <tlLogic id="1271504901" offset="0" programID="0" type="static">
      <phase duration="28.3570208175" state="GGrrr"/>
      <phase duration="3.20409457379" state="yyrrr"/>
      <phase duration="28.3570208175" state="rrGrr"/>
      <phase duration="3.20409457379" state="rryrr"/>
      <phase duration="28.3570208175" state="rrrGG"/>
      <phase duration="3.20409457379" state="rrryy"/>
   </tlLogic>
   <tlLogic id="1271504902" offset="0" programID="0" type="static">
      <phase duration="21.4337726339" state="Gr"/>
      <phase duration="4.40837301607" state="yr"/>
      <phase duration="21.4337726339" state="rG"/>
      <phase duration="4.40837301607" state="ry"/>
   </tlLogic>
   <tlLogic id="1271504905" offset="0" programID="0" type="static">
      <phase duration="23.6677878277" state="G"/>
      <phase duration="7.07112579569" state="y"/>
   </tlLogic>
   <tlLogic id="1271504907" offset="0" programID="0" type="static">
      <phase duration="25.791301052" state="G"/>
      <phase duration="8.25885892832" state="y"/>
   </tlLogic>
   <tlLogic id="1271504908" offset="0" programID="0" type="static">
      <phase duration="13.7648876149" state="G"/>
      <phase duration="8.9804836296" state="y"/>
   </tlLogic>
   <tlLogic id="1271504910" offset="0" programID="0" type="static">
      <phase duration="6.91389825055" state="Gr"/>
      <phase duration="5.00754847954" state="yr"/>
      <phase duration="6.91389825055" state="rG"/>
      <phase duration="5.00754847954" state="ry"/>
   </tlLogic>
   <tlLogic id="1271504913" offset="0" programID="0" type="static">
      <phase duration="16.978992317" state="GGrrr"/>
      <phase duration="8.30737460666" state="yyrrr"/>
      <phase duration="16.978992317" state="rrGGr"/>
      <phase duration="8.30737460666" state="rryyr"/>
      <phase duration="16.978992317" state="rrrrG"/>
      <phase duration="8.30737460666" state="rrrry"/>
   </tlLogic>
   <tlLogic id="1271504918" offset="0" programID="0" type="static">
      <phase duration="28.9102140945" state="G"/>
      <phase duration="4.90576114375" state="y"/>
   </tlLogic>
   <tlLogic id="1299369677" offset="0" programID="0" type="static">
      <phase duration="29.1221987746" state="G"/>
      <phase duration="5.73727054319" state="y"/>
   </tlLogic>
   <tlLogic id="1299369678" offset="0" programID="0" type="static">
      <phase duration="32.4975226461" state="G"/>
      <phase duration="8.50951184049" state="y"/>
   </tlLogic>
   <tlLogic id="1299369684" offset="0" programID="0" type="static">
      <phase duration="23.7233108531" state="G"/>
      <phase duration="8.32246814357" state="y"/>
   </tlLogic>
   <tlLogic id="1299369689" offset="0" programID="0" type="static">
      <phase duration="13.9125196595" state="GGrrr"/>
      <phase duration="8.25093156688" state="yyrrr"/>
      <phase duration="13.9125196595" state="rrGrr"/>
      <phase duration="8.25093156688" state="rryrr"/>
      <phase duration="13.9125196595" state="rrrGG"/>
      <phase duration="8.25093156688" state="rrryy"/>
   </tlLogic>
   <tlLogic id="1299369699" offset="0" programID="0" type="static">
      <phase duration="31.7455234931" state="G"/>
      <phase duration="7.58901444823" state="y"/>
   </tlLogic>
   <tlLogic id="1312440715" offset="0" programID="0" type="static">
      <phase duration="14.75230401" state="Gr"/>
      <phase duration="5.10921562736" state="yr"/>
      <phase duration="14.75230401" state="rG"/>
      <phase duration="5.10921562736" state="ry"/>
   </tlLogic>
   <tlLogic id="1312812204" offset="0" programID="0" type="static">
      <phase duration="9.32725947833" state="G"/>
      <phase duration="6.813843091" state="y"/>
   </tlLogic>
   <tlLogic id="1353566371" offset="0" programID="0" type="static">
      <phase duration="14.6606796308" state="G"/>
      <phase duration="5.67266963131" state="y"/>
   </tlLogic>
   <tlLogic id="1360932319" offset="0" programID="0" type="static"/>
   <tlLogic id="1366801185" offset="0" programID="0" type="static">
      <phase duration="20.704381987" state="G"/>
      <phase duration="6.41193335875" state="y"/>
   </tlLogic>