<?xml version="1.0" ?>
<tlLogics>
   <tlLogic id="1000099490" offset="0" programID="0" type="static">
      <phase duration="26.0984461908" state="Gr"/>
      <phase duration="8.06423042611" state="yr"/>
      <phase duration="26.0984461908" state="rG"/>
      <phase duration="8.06423042611" state="ry"/>
   </tlLogic>
   <tlLogic id="1000099503" offset="0" programID="0" type="static">
      <phase duration="11.6197833761" state="GGGrrrrrrrr"/>
      <phase duration="3.77007493722" state="yyyrrrrrrrr"/>
      <phase duration="11.6197833761" state="rrrGGGrrrrr"/>
      <phase duration="3.77007493722" state="rrryyyrrrrr"/>
      <phase duration="11.6197833761" state="rrrrrrGGGGG"/>
      <phase duration="3.77007493722" state="rrrrrryyyyy"/>
   </tlLogic>
   <tlLogic id="1000099520" offset="0" programID="0" type="static">
      <phase duration="16.818834247" state="G"/>
      <phase duration="3.17120913917" state="y"/>
   </tlLogic>
   <tlLogic id="1000099553" offset="0" programID="0" type="static">
      <phase duration="18.1536406935" state="Gr"/>
      <phase duration="8.58140500549" state="yr"/>
      <phase duration="18.1536406935" state="rG"/>
      <phase duration="8.58140500549" state="ry"/>
   </tlLogic>
   <tlLogic id="1000099576" offset="0" programID="0" type="static">
      <phase duration="11.7955329878" state="Grrrr"/>
      <phase duration="9.98871568604" state="yrrrr"/>
      <phase duration="11.7955329878" state="rGGrr"/>
      <phase duration="9.98871568604" state="ryyrr"/>
      <phase duration="11.7955329878" state="rrrGG"/>
      <phase duration="9.98871568604" state="rrryy"/>
   </tlLogic>
   <tlLogic id="1000099607" offset="0" programID="0" type="static">
      <phase duration="7.68097307306" state="GGr"/>
      <phase duration="4.04725251256" state="yyr"/>
      <phase duration="7.68097307306" state="rrG"/>
      <phase duration="4.04725251256" state="rry"/>
   </tlLogic>
   <tlLogic id="1000099650" offset="0" programID="0" type="static">
      <phase duration="32.203415759" state="G"/>
      <phase duration="9.1448654597" state="y"/>
   </tlLogic>
   <tlLogic id="1000099741" offset="0" programID="0" type="static">
      <phase duration="27.5102751896" state="GGrr"/>
      <phase duration="7.10146476681" state="yyrr"/>
      <phase duration="27.5102751896" state="rrGG"/>
      <phase duration="7.10146476681" state="rryy"/>
   </tlLogic>
   <tlLogic id="1000099788" offset="0" programID="0" type="static">
      <phase duration="29.0282060913" state="GGrr"/>
      <phase duration="5.26602014337" state="yyrr"/>
      <phase duration="29.0282060913" state="rrGG"/>
      <phase duration="5.26602014337" state="rryy"/>
   </tlLogic>
   <tlLogic id="1012321573" offset="0" programID="0" type="static">
      <phase duration="31.2072832545" state="Gr"/>
      <phase duration="7.45007548587" state="yr"/>
      <phase duration="31.2072832545" state="rG"/>
      <phase duration="7.45007548587" state="ry"/>
   </tlLogic>
   <tlLogic id="1012326820" offset="0" programID="0" type="static">
      <phase duration="17.5416385495" state="G"/>
      <phase duration="6.45942356898" state="y"/>
   </tlLogic>
   <tlLogic id="1028832536" offset="0" programID="0" type="static"/>
   <tlLogic id="1037290808" offset="0" programID="0" type="static">
      <phase duration="14.0385847733" state="GGGrrrrrr"/>
      <phase duration="2.72880044448" state="yyyrrrrrr"/>
      <phase duration="14.0385847733" state="rrrGGGrrr"/>
      <phase duration="2.72880044448" state="rrryyyrrr"/>
      <phase duration="14.0385847733" state="rrrrrrGGG"/>
      <phase duration="2.72880044448" state="rrrrrryyy"/>
   </tlLogic>
   <tlLogic id="1037290822" offset="0" programID="0" type="static">
      <phase duration="29.692964919" state="GGrr"/>
      <phase duration="7.53433040739" state="yyrr"/>
      <phase duration="29.692964919" state="rrGG"/>
      <phase duration="7.53433040739" state="rryy"/>
   </tlLogic>
   <tlLogic id="1037290863" offset="0" programID="0" type="static">
      <phase duration="19.8809367751" state="GGrr"/>
      <phase duration="8.59397364702" state="yyrr"/>
      <phase duration="19.8809367751" state="rrGG"/>
      <phase duration="8.59397364702" state="rryy"/>
   </tlLogic>
   <tlLogic id="1037290889" offset="0" programID="0" type="static">
      <phase duration="15.2493880044" state="GGrr"/>
      <phase duration="3.13985042726" state="yyrr"/>
      <phase duration="15.2493880044" state="rrGG"/>
      <phase duration="3.13985042726" state="rryy"/>
   </tlLogic>
   <tlLogic id="1037290915" offset="0" programID="0" type="static">
      <phase duration="23.8274479891" state="GGrrr"/>
      <phase duration="8.83067225419" state="yyrrr"/>
      <phase duration="23.8274479891" state="rrGGG"/>
      <phase duration="8.83067225419" state="rryyy"/>
   </tlLogic>
   <tlLogic id="1045044692" offset="0" programID="0" type="static">
      <phase duration="8.65622042462" state="Gr"/>
      <phase duration="4.15679461988" state="yr"/>
      <phase duration="8.65622042462" state="rG"/>
      <phase duration="4.15679461988" state="ry"/>
   </tlLogic>
   <tlLogic id="1045044715" offset="0" programID="0" type="static">
      <phase duration="7.66618155972" state="Gr"/>
      <phase duration="8.45421132179" state="yr"/>
      <phase duration="7.66618155972" state="rG"/>
      <phase duration="8.45421132179" state="ry"/>
   </tlLogic>
   <tlLogic id="1045044750" offset="0" programID="0" type="static">
      <phase duration="23.2046117776" state="Gr"/>
      <phase duration="6.50658379901" state="yr"/>
      <phase duration="23.2046117776" state="rG"/>
      <phase duration="6.50658379901" state="ry"/>
   </tlLogic>
   <tlLogic id="1045044796" offset="0" programID="0" type="static">
      <phase duration="7.1324459643" state="Gr"/>
      <phase duration="4.97347630996" state="yr"/>
      <phase duration="7.1324459643" state="rG"/>
      <phase duration="4.97347630996" state="ry"/>
   </tlLogic>
   <tlLogic id="1045044803" offset="0" programID="0" type="static">
      <phase duration="19.2849254915" state="Gr"/>
      <phase duration="3.82615316595" state="yr"/>
      <phase duration="19.2849254915" state="rG"/>
      <phase duration="3.82615316595" state="ry"/>
   </tlLogic>
   <tlLogic id="1045044863" offset="0" programID="0" type="static">
      <phase duration="12.3898238291" state="G"/>
      <phase duration="5.93978366631" state="y"/>
   </tlLogic>
   <tlLogic id="1062771951" offset="0" programID="0" type="static">
      <phase duration="16.2757499869" state="GGrr"/>
      <phase duration="6.67080640357" state="yyrr"/>
      <phase duration="16.2757499869" state="rrGG"/>
      <phase duration="6.67080640357" state="rryy"/>
   </tlLogic>
   <tlLogic id="1109589944" offset="0" programID="0" type="static">
      <phase duration="1.71399448687" state="GGGrrrrrr"/>
      <phase duration="7.85794213385" state="yyyrrrrrr"/>
      <phase duration="1.71399448687" state="rrrGGGrrr"/>
      <phase duration="7.85794213385" state="rrryyyrrr"/>
      <phase duration="1.71399448687" state="rrrrrrGGG"/>
      <phase duration="7.85794213385" state="rrrrrryyy"/>
   </tlLogic>
   <tlLogic id="1109589987" offset="0" programID="0" type="static">
      <phase duration="27.0698672107" state="GGrr"/>
      <phase duration="4.92649438825" state="yyrr"/>
      <phase duration="27.0698672107" state="rrGG"/>
      <phase duration="4.92649438825" state="rryy"/>
   </tlLogic>
   <tlLogic id="1149210260" offset="0" programID="0" type="static">
      <phase duration="9.91599122714" state="Gr"/>
      <phase duration="9.07855035493" state="yr"/>
      <phase duration="9.91599122714" state="rG"/>
      <phase duration="9.07855035493" state="ry"/>
   </tlLogic>
   <tlLogic id="1150667546" offset="0" programID="0" type="static">
      <phase duration="5.0973107515" state="G"/>
      <phase duration="2.4137190865" state="y"/>
   </tlLogic>
   <tlLogic id="1150667552" offset="0" programID="0" type="static">
      <phase duration="15.5996929868" state="Gr"/>
      <phase duration="5.3071609788" state="yr"/>
      <phase duration="15.5996929868" state="rG"/>
      <phase duration="5.3071609788" state="ry"/>
   </tlLogic>
   <tlLogic id="1150667560" offset="0" programID="0" type="static">
      <phase duration="2.96275627602" state="G"/>
      <phase duration="7.43028310419" state="y"/>
   </tlLogic>
   <tlLogic id="1150667568" offset="0" programID="0" type="static"/>
   <tlLogic id="1150667603" offset="0" programID="0" type="static">
      <phase duration="6.01705847355" state="Gr"/>
      <phase duration="6.47795256564" state="yr"/>
      <phase duration="6.01705847355" state="rG"/>
      <phase duration="6.47795256564" state="ry"/>
   </tlLogic>
   <tlLogic id="1150667604" offset="0" programID="0" type="static">
      <phase duration="12.2767378547" state="Gr"/>
      <phase duration="6.66398020117" state="yr"/>
      <phase duration="12.2767378547" state="rG"/>
      <phase duration="6.66398020117" state="ry"/>
   </tlLogic>
   <tlLogic id="1150667618" offset="0" programID="0" type="static">
      <phase duration="17.4990019955" state="G"/>
      <phase duration="6.32408747501" state="y"/>
   </tlLogic>
   <tlLogic id="1150667622" offset="0" programID="0" type="static">
      <phase duration="13.1906267753" state="G"/>
      <phase duration="5.72964549685" state="y"/>
   </tlLogic>
   <tlLogic id="1156723834" offset="0" programID="0" type="static">
      <phase duration="31.6223292264" state="G"/>
      <phase duration="4.37100122859" state="y"/>
   </tlLogic>
   <tlLogic id="1156723839" offset="0" programID="0" type="static">
      <phase duration="16.7046175736" state="Gr"/>
      <phase duration="6.06647021655" state="yr"/>
      <phase duration="16.7046175736" state="rG"/>
      <phase duration="6.06647021655" state="ry"/>
   </tlLogic>
   <tlLogic id="1200892937" offset="0" programID="0" type="static">
      <phase duration="27.5158261412" state="G"/>
      <phase duration="4.28553163756" state="y"/>
   </tlLogic>
   <tlLogic id="1201745377" offset="0" programID="0" type="static">
      <phase duration="28.0251358076" state="G"/>
      <phase duration="7.40596992972" state="y"/>
   </tlLogic>
   <tlLogic id="1201745399" offset="0" programID="0" type="static"/>
   <tlLogic id="1211136595" offset="0" programID="0" type="static">
      <phase duration="25.2306056741" state="G"/>
      <phase duration="4.33609085463" state="y"/>
   </tlLogic>
   <tlLogic id="1220020505" offset="0" programID="0" type="static">
      <phase duration="6.71885434779" state="G"/>
      <phase duration="5.99309094561" state="y"/>
   </tlLogic>
   <tlLogic id="1220020545" offset="0" programID="0" type="static">
      <phase duration="20.9989844014" state="GGrrr"/>
      <phase duration="6.13447065859" state="yyrrr"/>
      <phase duration="20.9989844014" state="rrGrr"/>
      <phase duration="6.13447065859" state="rryrr"/>
      <phase duration="20.9989844014" state="rrrGG"/>
      <phase duration="6.13447065859" state="rrryy"/>
   </tlLogic>
   <tlLogic id="1220020592" offset="0" programID="0" type="static">
      <phase duration="22.8281249889" state="Gr"/>
      <phase duration="1.72049727149" state="yr"/>
      <phase duration="22.8281249889" state="rG"/>
      <phase duration="1.72049727149" state="ry"/>
   </tlLogic>
   <tlLogic id="1220020630" offset="0" programID="0" type="static">
      <phase duration="13.0349132717" state="Gr"/>
      <phase duration="6.96004126378" state="yr"/>
      <phase duration="13.0349132717" state="rG"/>
      <phase duration="6.96004126378" state="ry"/>
   </tlLogic>
   <tlLogic id="1220020673" offset="0" programID="0" type="static">
      <phase duration="24.0435509837" state="GGGrrrrrr"/>
      <phase duration="8.35825274757" state="yyyrrrrrr"/>
      <phase duration="24.0435509837" state="rrrGGGrrr"/>
      <phase duration="8.35825274757" state="rrryyyrrr"/>
      <phase duration="24.0435509837" state="rrrrrrGGG"/>
      <phase duration="8.35825274757" state="rrrrrryyy"/>
   </tlLogic>
   <tlLogic id="1229522462" offset="0" programID="0" type="static">
      <phase duration="6.31153306121" state="G"/>
      <phase duration="7.85633748597" state="y"/>
   </tlLogic>
   <tlLogic id="1229522502" offset="0" programID="0" type="static">
      <phase duration="23.4690061276" state="Gr"/>
      <phase duration="7.82333915686" state="yr"/>
      <phase duration="23.4690061276" state="rG"/>
      <phase duration="7.82333915686" state="ry"/>
   </tlLogic>
   <tlLogic id="1229522509" offset="0" programID="0" type="static">
      <phase duration="7.329980347" state="G"/>
      <phase duration="5.31259801743" state="y"/>
   </tlLogic>
   <tlLogic id="1229522552" offset="0" programID="0" type="static">
      <phase duration="22.4178452033" state="G"/>
      <phase duration="8.9162752778" state="y"/>
   </tlLogic>
   <tlLogic id="1229522554" offset="0" programID="0" type="static">
      <phase duration="29.6016635457" state="G"/>
      <phase duration="3.12874253792" state="y"/>
   </tlLogic>
   <tlLogic id="1252265070" offset="0" programID="0" type="static"/>
   <tlLogic id="1252285082" offset="0" programID="0" type="static">
      <phase duration="34.8308422572" state="G"/>
      <phase duration="2.87427661165" state="y"/>
   </tlLogic>
   <tlLogic id="1252285092" offset="0" programID="0" type="static">
      <phase duration="12.3814295277" state="G"/>
      <phase duration="3.7522391387" state="y"/>
   </tlLogic>
   <tlLogic id="1252285107" offset="0" programID="0" type="static">
      <phase duration="27.2158138494" state="G"/>
      <phase duration="7.72244369907" state="y"/>
   </tlLogic>
   <tlLogic id="1252285138" offset="0" programID="0" type="static">
      <phase duration="28.1021967854" state="G"/>
      <phase duration="9.01294840807" state="y"/>
   </tlLogic>
   <tlLogic id="1252285140" offset="0" programID="0" type="static">
      <phase duration="29.6528432677" state="Gr"/>
      <phase duration="8.62629057972" state="yr"/>
      <phase duration="29.6528432677" state="rG"/>
      <phase duration="8.62629057972" state="ry"/>
   </tlLogic>
   <tlLogic id="1258258237" offset="0" programID="0" type="static">
      <phase duration="17.4642184339" state="GGr"/>
      <phase duration="6.00909183668" state="yyr"/>
      <phase duration="17.4642184339" state="rrG"/>
      <phase duration="6.00909183668" state="rry"/>
   </tlLogic>
   <tlLogic id="1271504748" offset="0" programID="0" type="static">
      <phase duration="35.4996436442" state="Gr"/>
      <phase duration="8.35829592956" state="yr"/>
      <phase duration="35.4996436442" state="rG"/>
      <phase duration="8.35829592956" state="ry"/>
   </tlLogic>
   <tlLogic id="1271504750" offset="0" programID="0" type="static">
      <phase duration="19.8359729889" state="G"/>
      <phase duration="7.92584660014" state="y"/>
   </tlLogic>
   <tlLogic id="1271504755" offset="0" programID="0" type="static">
      <phase duration="31.9165273385" state="GGrrr"/>
      <phase duration="9.20835727415" state="yyrrr"/>
      <phase duration="31.9165273385" state="rrGrr"/>
      <phase duration="9.20835727415" state="rryrr"/>
      <phase duration="31.9165273385" state="rrrGG"/>
      <phase duration="9.20835727415" state="rrryy"/>
   </tlLogic>
   <tlLogic id="1271504757" offset="0" programID="0" type="static">
      <phase duration="18.7780462884" state="GGrrr"/>
      <phase duration="6.74142560721" state="yyrrr"/>
      <phase duration="18.7780462884" state="rrGrr"/>
      <phase duration="6.74142560721" state="rryrr"/>
      <phase duration="18.7780462884" state="rrrGG"/>
      <phase duration="6.74142560721" state="rrryy"/>
   </tlLogic>
   <tlLogic id="1271504758" offset="0" programID="0" type="static">
      <phase duration="4.02212887872" state="G"/>
      <phase duration="8.72116700438" state="y"/>
   </tlLogic>
   <tlLogic id="1271504762" offset="0" programID="0" type="static">
      <phase duration="15.2541183112" state="G"/>
      <phase duration="3.31404753707" state="y"/>
   </tlLogic>
   <tlLogic id="1271504763" offset="0" programID="0" type="static">
      <phase duration="18.0119451204" state="G"/>
      <phase duration="8.83463067944" state="y"/>
   </tlLogic>
   <tlLogic id="1271504767" offset="0" programID="0" type="static">
      <phase duration="27.0997702376" state="G"/>
      <phase duration="7.20606464029" state="y"/>
   </tlLogic>
   <tlLogic id="1271504770" offset="0" programID="0" type="static">
      <phase duration="12.1526199849" state="Gr"/>
      <phase duration="4.92144381885" state="yr"/>
      <phase duration="12.1526199849" state="rG"/>
      <phase duration="4.92144381885" state="ry"/>
   </tlLogic>
   <tlLogic id="1271504773" offset="0" programID="0" type="static">
      <phase duration="14.2130559761" state="GGrrr"/>
      <phase duration="4.58654508988" state="yyrrr"/>
      <phase duration="14.2130559761" state="rrGrr"/>
      <phase duration="4.58654508988" state="rryrr"/>
      <phase duration="14.2130559761" state="rrrGG"/>
      <phase duration="4.58654508988" state="rrryy"/>
   </tlLogic>
   <tlLogic id="1271504774" offset="0" programID="0" type="static">
      <phase duration="13.8195061054" state="G"/>
      <phase duration="9.42368166374" state="y"/>
   </tlLogic>
   <tlLogic id="1271504775" offset="0" programID="0" type="static">
      <phase duration="18.0871153863" state="Gr"/>
      <phase duration="4.27642981851" state="yr"/>
      <phase duration="18.0871153863" state="rG"/>
      <phase duration="4.27642981851" state="ry"/>
   </tlLogic>
   <tlLogic id="1271504778" offset="0" programID="0" type="static">
      <phase duration="29.2917276382" state="G"/>
      <phase duration="5.72738059241" state="y"/>
   </tlLogic>
   <tlLogic id="1271504783" offset="0" programID="0" type="static">
      <phase duration="10.2121502047" state="Gr"/>
      <phase duration="8.30851845114" state="yr"/>
      <phase duration="10.2121502047" state="rG"/>
      <phase duration="8.30851845114" state="ry"/>
   </tlLogic>
   <tlLogic id="1271504788" offset="0" programID="0" type="static">
      <phase duration="14.4572022035" state="GGrrr"/>
      <phase duration="9.0061698823" state="yyrrr"/>
      <phase duration="14.4572022035" state="rrGGG"/>
      <phase duration="9.0061698823" state="rryyy"/>
   </tlLogic>
   <tlLogic id="1271504797" offset="0" programID="0" type="static">
      <phase duration="24.4424859374" state="Gr"/>
      <phase duration="8.03203009205" state="yr"/>
      <phase duration="24.4424859374" state="rG"/>
      <phase duration="8.03203009205" state="ry"/>
   </tlLogic>
   <tlLogic id="1271504801" offset="0" programID="0" type="static">
      <phase duration="19.984781681" state="G"/>
      <phase duration="4.66725998731" state="y"/>
   </tlLogic>
   <tlLogic id="1271504803" offset="0" programID="0" type="static">
      <phase duration="24.1923489415" state="G"/>
      <phase duration="3.27633892461" state="y"/>
   </tlLogic>
   <tlLogic id="1271504804" offset="0" programID="0" type="static">
      <phase duration="21.2951756166" state="Gr"/>
      <phase duration="4.24772074058" state="yr"/>
      <phase duration="21.2951756166" state="rG"/>
      <phase duration="4.24772074058" state="ry"/>
   </tlLogic>
   <tlLogic id="1271504812" offset="0" programID="0" type="static">
      <phase duration="15.8349831247" state="G"/>
      <phase duration="9.27593143006" state="y"/>
   </tlLogic>
   <tlLogic id="1271504814" offset="0" programID="0" type="static">
      <phase duration="18.5140586352" state="G"/>
      <phase duration="3.59740803463" state="y"/>
   </tlLogic>
   <tlLogic id="1271504815" offset="0" programID="0" type="static">
      <phase duration="16.3008817579" state="Gr"/>
      <phase duration="1.19291177903" state="yr"/>
      <phase duration="16.3008817579" state="rG"/>
      <phase duration="1.19291177903" state="ry"/>
   </tlLogic>
   <tlLogic id="1271504816" offset="0" programID="0" type="static">
      <phase duration="10.5530823791" state="G"/>
      <phase duration="5.64480216631" state="y"/>
   </tlLogic>
   <tlLogic id="1271504819" offset="0" programID="0" type="static">
      <phase duration="10.6414784464" state="Gr"/>
      <phase duration="5.26927896406" state="yr"/>
      <phase duration="10.6414784464" state="rG"/>
      <phase duration="5.26927896406" state="ry"/>
   </tlLogic>
   <tlLogic id="1271504822" offset="0" programID="0" type="static">
      <phase duration="24.7259675816" state="G"/>
      <phase duration="5.78465507058" state="y"/>
   </tlLogic>
   <tlLogic id="1271504823" offset="0" programID="0" type="static">
      <phase duration="21.0152197807" state="G"/>
      <phase duration="9.49382829193" state="y"/>
   </tlLogic>
   <tlLogic id="1271504824" offset="0" programID="0" type="static">
      <phase duration="27.3829899814" state="G"/>
      <phase duration="4.58514591002" state="y"/>
   </tlLogic>
   <tlLogic id="1271504827" offset="0" programID="0" type="static">
      <phase duration="13.9975564596" state="Gr"/>
      <phase duration="6.10482209329" state="yr"/>
      <phase duration="13.9975564596" state="rG"/>
      <phase duration="6.10482209329" state="ry"/>
   </tlLogic>
   <tlLogic id="1271504828" offset="0" programID="0" type="static">
      <phase duration="21.0231696324" state="GGrrr"/>
      <phase duration="4.20433403911" state="yyrrr"/>
      <phase duration="21.0231696324" state="rrGrr"/>
      <phase duration="4.20433403911" state="rryrr"/>
      <phase duration="21.0231696324" state="rrrGG"/>
      <phase duration="4.20433403911" state="rrryy"/>
   </tlLogic>
   <tlLogic id="1271504829" offset="0" programID="0" type="static">
      <phase duration="17.5201299054" state="Gr"/>
      <phase duration="6.99143214669" state="yr"/>
      <phase duration="17.5201299054" state="rG"/>
      <phase duration="6.99143214669" state="ry"/>
   </tlLogic>
   <tlLogic id="1271504830" offset="0" programID="0" type="static">
      <phase duration="26.035051735" state="GGrrr"/>
      <phase duration="8.57499830636" state="yyrrr"/>
      <phase duration="26.035051735" state="rrGrr"/>
      <phase duration="8.57499830636" state="rryrr"/>
      <phase duration="26.035051735" state="rrrGG"/>
      <phase duration="8.57499830636" state="rrryy"/>
   </tlLogic>
   <tlLogic id="1271504832" offset="0" programID="0" type="static">
      <phase duration="23.6874041905" state="Gr"/>
      <phase duration="9.10931832869" state="yr"/>
      <phase duration="23.6874041905" state="rG"/>
      <phase duration="9.10931832869" state="ry"/>
   </tlLogic>
   <tlLogic id="1271504836" offset="0" programID="0" type="static">
      <phase duration="23.9955632949" state="G"/>
      <phase duration="5.68774096885" state="y"/>
   </tlLogic>
   <tlLogic id="1271504838" offset="0" programID="0" type="static">
      <phase duration="18.980870498" state="GGrrr"/>
      <phase duration="9.7427224433" state="yyrrr"/>
      <phase duration="18.980870498" state="rrGGr"/>
      <phase duration="9.7427224433" state="rryyr"/>
      <phase duration="18.980870498" state="rrrrG"/>
      <phase duration="9.7427224433" state="rrrry"/>
   </tlLogic>
   <tlLogic id="1271504841" offset="0" programID="0" type="static">
      <phase duration="21.4755431638" state="G"/>
      <phase duration="2.37228305085" state="y"/>
   </tlLogic>
   <tlLogic id="1271504842" offset="0" programID="0" type="static">
      <phase duration="19.0408002395" state="G"/>
      <phase duration="7.50026191898" state="y"/>
   </tlLogic>
   <tlLogic id="1271504845" offset="0" programID="0" type="static">
      <phase duration="29.345832545" state="G"/>
      <phase duration="9.97801483625" state="y"/>
   </tlLogic>
   <tlLogic id="1271504850" offset="0" programID="0" type="static">
      <phase duration="16.395263157" state="Gr"/>
      <phase duration="2.98712555319" state="yr"/>
      <phase duration="16.395263157" state="rG"/>
      <phase duration="2.98712555319" state="ry"/>
   </tlLogic>
   <tlLogic id="1271504852" offset="0" programID="0" type="static">
      <phase duration="3.37098428588" state="G"/>
      <phase duration="4.76371282802" state="y"/>
   </tlLogic>
   <tlLogic id="1271504861" offset="0" programID="0" type="static">
      <phase duration="32.4660325219" state="G"/>
      <phase duration="8.42962862834" state="y"/>
   </tlLogic>
   <tlLogic id="1271504863" offset="0" programID="0" type="static">
      <phase duration="28.9646235184" state="G"/>
      <phase duration="5.598457325" state="y"/>
   </tlLogic>
   <tlLogic id="1271504871" offset="0" programID="0" type="static">
      <phase duration="22.2294573971" state="GGrr"/>
      <phase duration="3.77023817694" state="yyrr"/>
      <phase duration="22.2294573971" state="rrGG"/>
      <phase duration="3.77023817694" state="rryy"/>
   </tlLogic>
   <tlLogic id="1271504875" offset="0" programID="0" type="static">
      <phase duration="24.3521513584" state="G"/>
      <phase duration="8.26893978651" state="y"/>
   </tlLogic>
   <tlLogic id="1271504876" offset="0" programID="0" type="static">
      <phase duration="28.2174261338" state="G"/>
      <phase duration="8.88261731611" state="y"/>
   </tlLogic>
   <tlLogic id="1271504878" offset="0" programID="0" type="static">
      <phase duration="37.0467102939" state="G"/>
      <phase duration="6.33229683889" state="y"/>
   </tlLogic>
   <tlLogic id="1271504881" offset="0" programID="0" type="static">
      <phase duration="14.5181473404" state="GGrrr"/>
      <phase duration="8.19357955847" state="yyrrr"/>
      <phase duration="14.5181473404" state="rrGrr"/>
      <phase duration="8.19357955847" state="rryrr"/>
      <phase duration="14.5181473404" state="rrrGG"/>
      <phase duration="8.19357955847" state="rrryy"/>
   </tlLogic>
   <tlLogic id="1271504888" offset="0" programID="0" type="static">
      <phase duration="33.8404197126" state="G"/>
      <phase duration="6.38303690576" state="y"/>
   </tlLogic>
   <tlLogic id="1271504889" offset="0" programID="0" type="static">
      <phase duration="22.4403442156" state="Gr"/>
      <phase duration="3.43934416251" state="yr"/>
      <phase duration="22.4403442156" state="rG"/>
      <phase duration="3.43934416251" state="ry"/>
   </tlLogic>
   <tlLogic id="1271504893" offset="0" programID="0" type="static">
      <phase duration="16.0793386425" state="GGrrr"/>
      <phase duration="8.76190972849" state="yyrrr"/>
      <phase duration="16.0793386425" state="rrGrr"/>
      <phase duration="8.76190972849" state="rryrr"/>
      <phase duration="16.0793386425" state="rrrGG"/>
      <phase duration="8.76190972849" state="rrryy"/>
   </tlLogic>
   <tlLogic id="1271504894" offset="0" programID="0" type="static">
      <phase duration="21.1985296374" state="G"/>
      <phase duration="6.00832648351" state="y"/>
   </tlLogic>
   <tlLogic id="1271504899" offset="0" programID="0" type="static">
      <phase duration="30.456545689" state="G"/>
      <phase duration="9.28552434492" state="y"/>
   </tlLogic>
   <tlLogic id="1271504904" offset="0" programID="0" type="static">
      <phase duration="23.8144825931" state="Grr"/>
      <phase duration="5.33549108826" state="yrr"/>
      <phase duration="23.8144825931" state="rGG"/>
      <phase duration="5.33549108826" state="ryy"/>
   </tlLogic>
   <tlLogic id="1271504905" offset="0" programID="0" type="static">
      <phase duration="18.6290992002" state="G"/>
      <phase duration="4.73217760393" state="y"/>
   </tlLogic>
   <tlLogic id="1271504907" offset="0" programID="0" type="static">
      <phase duration="20.9072377071" state="G"/>
      <phase duration="9.76820254201" state="y"/>
   </tlLogic>
   <tlLogic id="1271504908" offset="0" programID="0" type="static">
      <phase duration="17.7923640353" state="G"/>
      <phase duration="8.45210932411" state="y"/>
   </tlLogic>
   <tlLogic id="1271504910" offset="0" programID="0" type="static">
      <phase duration="7.63974063157" state="Gr"/>
      <phase duration="4.33870312741" state="yr"/>
      <phase duration="7.63974063157" state="rG"/>
      <phase duration="4.33870312741" state="ry"/>
   </tlLogic>
   <tlLogic id="1271504911" offset="0" programID="0" type="static">
      <phase duration="36.6107164084" state="G"/>
      <phase duration="7.28761676505" state="y"/>
   </tlLogic>
   <tlLogic id="1271504918" offset="0" programID="0" type="static">
      <phase duration="26.0147287574" state="G"/>
      <phase duration="3.29180746526" state="y"/>
   </tlLogic>
   <tlLogic id="1299369677" offset="0" programID="0" type="static">
      <phase duration="26.2333077672" state="G"/>
      <phase duration="5.98838236015" state="y"/>
   </tlLogic>
   <tlLogic id="1299369678" offset="0" programID="0" type="static">
      <phase duration="29.6812565197" state="G"/>
      <phase duration="8.33087187891" state="y"/>
   </tlLogic>
   <tlLogic id="1299369684" offset="0" programID="0" type="static">
      <phase duration="21.4740561985" state="G"/>
      <phase duration="9.4874161757" state="y"/>
   </tlLogic>
   <tlLogic id="1299369689" offset="0" programID="0" type="static">
      <phase duration="24.6609610658" state="GGrrr"/>
      <phase duration="6.94842978119" state="yyrrr"/>
      <phase duration="24.6609610658" state="rrGrr"/>
      <phase duration="6.94842978119" state="rryrr"/>
      <phase duration="24.6609610658" state="rrrGG"/>
      <phase duration="6.94842978119" state="rrryy"/>
   </tlLogic>
   <tlLogic id="1299369691" offset="0" programID="0" type="static">
      <phase duration="9.17041063452" state="Gr"/>
      <phase duration="8.30252801408" state="yr"/>
      <phase duration="9.17041063452" state="rG"/>
      <phase duration="8.30252801408" state="ry"/>
   </tlLogic>
   <tlLogic id="1299369697" offset="0" programID="0" type="static">
      <phase duration="35.3652030699" state="G"/>
      <phase duration="5.95870367204" state="y"/>
   </tlLogic>