<?xml version="1.0" ?>
<tlLogics>
   <tlLogic id="1000099468" offset="0" programID="0" type="static">
      <phase duration="29.3217003758" state="G"/>
      <phase duration="8.98727924156" state="y"/>
   </tlLogic>
   <tlLogic id="1000099475" offset="0" programID="0" type="static">
      <phase duration="32.9836412478" state="GG"/>
      <phase duration="6.36646903856" state="yy"/>
   </tlLogic>
   <tlLogic id="1000099520" offset="0" programID="0" type="static">
      <phase duration="12.6584509163" state="G"/>
      <phase duration="3.3617949842" state="y"/>
   </tlLogic>
   <tlLogic id="1000099576" offset="0" programID="0" type="static">
      <phase duration="35.6094861238" state="Grrrr"/>
      <phase duration="8.52416866518" state="yrrrr"/>
      <phase duration="35.6094861238" state="rGGrr"/>
      <phase duration="8.52416866518" state="ryyrr"/>
      <phase duration="35.6094861238" state="rrrGG"/>
      <phase duration="8.52416866518" state="rrryy"/>
   </tlLogic>
   <tlLogic id="1000099607" offset="0" programID="0" type="static">
      <phase duration="30.0114284219" state="GGr"/>
      <phase duration="5.35963183403" state="yyr"/>
      <phase duration="30.0114284219" state="rrG"/>
      <phase duration="5.35963183403" state="rry"/>
   </tlLogic>
   <tlLogic id="1000099650" offset="0" programID="0" type="static">
      <phase duration="6.53152124295" state="G"/>
      <phase duration="8.39527319723" state="y"/>
   </tlLogic>
   <tlLogic id="1000099651" offset="0" programID="0" type="static">
      <phase duration="31.6910089955" state="GGrrrr"/>
      <phase duration="4.42947419688" state="yyrrrr"/>
      <phase duration="31.6910089955" state="rrGGrr"/>
      <phase duration="4.42947419688" state="rryyrr"/>
      <phase duration="31.6910089955" state="rrrrGG"/>
      <phase duration="4.42947419688" state="rrrryy"/>
   </tlLogic>
   <tlLogic id="1000099741" offset="0" programID="0" type="static">
      <phase duration="32.5421991441" state="GGrr"/>
      <phase duration="6.67871155941" state="yyrr"/>
      <phase duration="32.5421991441" state="rrGG"/>
      <phase duration="6.67871155941" state="rryy"/>
   </tlLogic>
   <tlLogic id="1000099788" offset="0" programID="0" type="static">
      <phase duration="36.2807127422" state="GGrr"/>
      <phase duration="4.59875831845" state="yyrr"/>
      <phase duration="36.2807127422" state="rrGG"/>
      <phase duration="4.59875831845" state="rryy"/>
   </tlLogic>
   <tlLogic id="1012321580" offset="0" programID="0" type="static">
      <phase duration="18.9346605064" state="Gr"/>
      <phase duration="8.55061814986" state="yr"/>
      <phase duration="18.9346605064" state="rG"/>
      <phase duration="8.55061814986" state="ry"/>
   </tlLogic>
   <tlLogic id="1012326820" offset="0" programID="0" type="static">
      <phase duration="10.6686009578" state="G"/>
      <phase duration="7.9131379321" state="y"/>
   </tlLogic>
   <tlLogic id="1028832186" offset="0" programID="0" type="static"/>
   <tlLogic id="1028832536" offset="0" programID="0" type="static"/>
   <tlLogic id="1037290808" offset="0" programID="0" type="static">
      <phase duration="8.70557372221" state="GGGrrrrrr"/>
      <phase duration="4.36229118727" state="yyyrrrrrr"/>
      <phase duration="8.70557372221" state="rrrGGGrrr"/>
      <phase duration="4.36229118727" state="rrryyyrrr"/>
      <phase duration="8.70557372221" state="rrrrrrGGG"/>
      <phase duration="4.36229118727" state="rrrrrryyy"/>
   </tlLogic>
   <tlLogic id="1037290863" offset="0" programID="0" type="static">
      <phase duration="29.3029180892" state="GGrr"/>
      <phase duration="8.10457733015" state="yyrr"/>
      <phase duration="29.3029180892" state="rrGG"/>
      <phase duration="8.10457733015" state="rryy"/>
   </tlLogic>
   <tlLogic id="1037290889" offset="0" programID="0" type="static">
      <phase duration="28.1009806041" state="GGrr"/>
      <phase duration="6.39721661112" state="yyrr"/>
      <phase duration="28.1009806041" state="rrGG"/>
      <phase duration="6.39721661112" state="rryy"/>
   </tlLogic>
   <tlLogic id="1037290915" offset="0" programID="0" type="static">
      <phase duration="27.3930805795" state="GGrrr"/>
      <phase duration="7.54715044895" state="yyrrr"/>
      <phase duration="27.3930805795" state="rrGGG"/>
      <phase duration="7.54715044895" state="rryyy"/>
   </tlLogic>
   <tlLogic id="1037290944" offset="0" programID="0" type="static">
      <phase duration="19.7174111384" state="G"/>
      <phase duration="2.96389642378" state="y"/>
   </tlLogic>
   <tlLogic id="1045044692" offset="0" programID="0" type="static">
      <phase duration="12.8354293912" state="Gr"/>
      <phase duration="5.72377552557" state="yr"/>
      <phase duration="12.8354293912" state="rG"/>
      <phase duration="5.72377552557" state="ry"/>
   </tlLogic>
   <tlLogic id="1045044715" offset="0" programID="0" type="static">
      <phase duration="33.4005908483" state="Gr"/>
      <phase duration="8.85788288343" state="yr"/>
      <phase duration="33.4005908483" state="rG"/>
      <phase duration="8.85788288343" state="ry"/>
   </tlLogic>
   <tlLogic id="1045044750" offset="0" programID="0" type="static">
      <phase duration="15.3475373864" state="Gr"/>
      <phase duration="6.43806902529" state="yr"/>
      <phase duration="15.3475373864" state="rG"/>
      <phase duration="6.43806902529" state="ry"/>
   </tlLogic>
   <tlLogic id="1045044796" offset="0" programID="0" type="static">
      <phase duration="28.9232975777" state="Gr"/>
      <phase duration="3.52074087885" state="yr"/>
      <phase duration="28.9232975777" state="rG"/>
      <phase duration="3.52074087885" state="ry"/>
   </tlLogic>
   <tlLogic id="1062771951" offset="0" programID="0" type="static">
      <phase duration="16.8764380209" state="GGrr"/>
      <phase duration="4.6423373825" state="yyrr"/>
      <phase duration="16.8764380209" state="rrGG"/>
      <phase duration="4.6423373825" state="rryy"/>
   </tlLogic>
   <tlLogic id="1109589944" offset="0" programID="0" type="static">
      <phase duration="6.16965660789" state="GGGrrrrrr"/>
      <phase duration="6.16291518245" state="yyyrrrrrr"/>
      <phase duration="6.16965660789" state="rrrGGGrrr"/>
      <phase duration="6.16291518245" state="rrryyyrrr"/>
      <phase duration="6.16965660789" state="rrrrrrGGG"/>
      <phase duration="6.16291518245" state="rrrrrryyy"/>
   </tlLogic>
   <tlLogic id="1109589987" offset="0" programID="0" type="static">
      <phase duration="13.4555230065" state="GGrr"/>
      <phase duration="9.19465952937" state="yyrr"/>
      <phase duration="13.4555230065" state="rrGG"/>
      <phase duration="9.19465952937" state="rryy"/>
   </tlLogic>
   <tlLogic id="1125127500" offset="0" programID="0" type="static">
      <phase duration="15.8263268169" state="GG"/>
      <phase duration="6.29619374727" state="yy"/>
   </tlLogic>
   <tlLogic id="1149210260" offset="0" programID="0" type="static">
      <phase duration="5.99504692759" state="Gr"/>
      <phase duration="9.79772978204" state="yr"/>
      <phase duration="5.99504692759" state="rG"/>
      <phase duration="9.79772978204" state="ry"/>
   </tlLogic>
   <tlLogic id="1150667546" offset="0" programID="0" type="static">
      <phase duration="27.9854011622" state="G"/>
      <phase duration="6.14067207163" state="y"/>
   </tlLogic>
   <tlLogic id="1150667552" offset="0" programID="0" type="static">
      <phase duration="26.7304067152" state="Gr"/>
      <phase duration="7.14500018639" state="yr"/>
      <phase duration="26.7304067152" state="rG"/>
      <phase duration="7.14500018639" state="ry"/>
   </tlLogic>
   <tlLogic id="1150667558" offset="0" programID="0" type="static">
      <phase duration="18.033054242" state="Gr"/>
      <phase duration="4.77378129625" state="yr"/>
      <phase duration="18.033054242" state="rG"/>
      <phase duration="4.77378129625" state="ry"/>
   </tlLogic>
   <tlLogic id="1150667560" offset="0" programID="0" type="static">
      <phase duration="4.41718596749" state="G"/>
      <phase duration="3.25120900304" state="y"/>
   </tlLogic>
   <tlLogic id="1150667568" offset="0" programID="0" type="static"/>
   <tlLogic id="1150667586" offset="0" programID="0" type="static">
      <phase duration="30.0392455862" state="G"/>
      <phase duration="2.81666810422" state="y"/>
   </tlLogic>
   <tlLogic id="1150667608" offset="0" programID="0" type="static">
      <phase duration="21.2440906083" state="Gr"/>
      <phase duration="7.58359316707" state="yr"/>
      <phase duration="21.2440906083" state="rG"/>
      <phase duration="7.58359316707" state="ry"/>
   </tlLogic>
   <tlLogic id="1150667618" offset="0" programID="0" type="static">
      <phase duration="27.8723330845" state="G"/>
      <phase duration="8.29081774994" state="y"/>
   </tlLogic>
   <tlLogic id="1156723834" offset="0" programID="0" type="static">
      <phase duration="19.9637885782" state="G"/>
      <phase duration="6.64925120659" state="y"/>
   </tlLogic>
   <tlLogic id="1156723839" offset="0" programID="0" type="static">
      <phase duration="23.6766360895" state="Gr"/>
      <phase duration="9.01700787555" state="yr"/>
      <phase duration="23.6766360895" state="rG"/>
      <phase duration="9.01700787555" state="ry"/>
   </tlLogic>
   <tlLogic id="1200892937" offset="0" programID="0" type="static">
      <phase duration="27.2336867426" state="G"/>
      <phase duration="5.88156042401" state="y"/>
   </tlLogic>
   <tlLogic id="1200892960" offset="0" programID="0" type="static">
      <phase duration="22.8335342436" state="Gr"/>
      <phase duration="7.68799369424" state="yr"/>
      <phase duration="22.8335342436" state="rG"/>
      <phase duration="7.68799369424" state="ry"/>
   </tlLogic>
   <tlLogic id="1201745377" offset="0" programID="0" type="static">
      <phase duration="9.18667877985" state="G"/>
      <phase duration="8.68502308951" state="y"/>
   </tlLogic>
   <tlLogic id="1201745399" offset="0" programID="0" type="static"/>
   <tlLogic id="1211136595" offset="0" programID="0" type="static">
      <phase duration="25.894919917" state="G"/>
      <phase duration="9.13878039226" state="y"/>
   </tlLogic>
   <tlLogic id="1211136870" offset="0" programID="0" type="static">
      <phase duration="14.5020838449" state="GGrr"/>
      <phase duration="7.87989252044" state="yyrr"/>
      <phase duration="14.5020838449" state="rrGG"/>
      <phase duration="7.87989252044" state="rryy"/>
   </tlLogic>
   <tlLogic id="1220020505" offset="0" programID="0" type="static">
      <phase duration="8.56601587692" state="G"/>
      <phase duration="8.86079939364" state="y"/>
   </tlLogic>
   <tlLogic id="1220020588" offset="0" programID="0" type="static">
      <phase duration="17.3790945904" state="GGrr"/>
      <phase duration="8.3304433748" state="yyrr"/>
      <phase duration="17.3790945904" state="rrGG"/>
      <phase duration="8.3304433748" state="rryy"/>
   </tlLogic>
   <tlLogic id="1220020592" offset="0" programID="0" type="static">
      <phase duration="32.8979922798" state="Gr"/>
      <phase duration="8.32027706399" state="yr"/>
      <phase duration="32.8979922798" state="rG"/>
      <phase duration="8.32027706399" state="ry"/>
   </tlLogic>
   <tlLogic id="1220020630" offset="0" programID="0" type="static">
      <phase duration="23.7374521048" state="Gr"/>
      <phase duration="6.99117665666" state="yr"/>
      <phase duration="23.7374521048" state="rG"/>
      <phase duration="6.99117665666" state="ry"/>
   </tlLogic>
   <tlLogic id="1220020656" offset="0" programID="0" type="static">
      <phase duration="16.0341278716" state="GGrr"/>
      <phase duration="8.79355697193" state="yyrr"/>
      <phase duration="16.0341278716" state="rrGG"/>
      <phase duration="8.79355697193" state="rryy"/>
   </tlLogic>
   <tlLogic id="1220020673" offset="0" programID="0" type="static">
      <phase duration="20.2027767483" state="GGGrrrrrr"/>
      <phase duration="3.11773171943" state="yyyrrrrrr"/>
      <phase duration="20.2027767483" state="rrrGGGrrr"/>
      <phase duration="3.11773171943" state="rrryyyrrr"/>
      <phase duration="20.2027767483" state="rrrrrrGGG"/>
      <phase duration="3.11773171943" state="rrrrrryyy"/>
   </tlLogic>
   <tlLogic id="1229522462" offset="0" programID="0" type="static">
      <phase duration="23.6228475738" state="G"/>
      <phase duration="8.50422252036" state="y"/>
   </tlLogic>
   <tlLogic id="1229522552" offset="0" programID="0" type="static">
      <phase duration="9.2090881256" state="G"/>
      <phase duration="4.48063836853" state="y"/>
   </tlLogic>
   <tlLogic id="1252265070" offset="0" programID="0" type="static"/>
   <tlLogic id="1252285092" offset="0" programID="0" type="static">
      <phase duration="19.3178829046" state="G"/>
      <phase duration="6.61537363167" state="y"/>
   </tlLogic>
   <tlLogic id="1252285093" offset="0" programID="0" type="static">
      <phase duration="15.1128008243" state="Gr"/>
      <phase duration="9.94781506184" state="yr"/>
      <phase duration="15.1128008243" state="rG"/>
      <phase duration="9.94781506184" state="ry"/>
   </tlLogic>
   <tlLogic id="1252285137" offset="0" programID="0" type="static">
      <phase duration="7.60364875268" state="Gr"/>
      <phase duration="7.47490594287" state="yr"/>
      <phase duration="7.60364875268" state="rG"/>
      <phase duration="7.47490594287" state="ry"/>
   </tlLogic>
   <tlLogic id="1252285138" offset="0" programID="0" type="static">
      <phase duration="34.5169232079" state="G"/>
      <phase duration="5.07539119584" state="y"/>
   </tlLogic>
   <tlLogic id="1252285140" offset="0" programID="0" type="static">
      <phase duration="19.3262739256" state="Gr"/>
      <phase duration="8.15058281674" state="yr"/>
      <phase duration="19.3262739256" state="rG"/>
      <phase duration="8.15058281674" state="ry"/>
   </tlLogic>
   <tlLogic id="1258258237" offset="0" programID="0" type="static">
      <phase duration="14.5245220892" state="GGr"/>
      <phase duration="5.86623385582" state="yyr"/>
      <phase duration="14.5245220892" state="rrG"/>
      <phase duration="5.86623385582" state="rry"/>
   </tlLogic>
   <tlLogic id="1264255381" offset="0" programID="0" type="static">
      <phase duration="29.4445507986" state="GGGrrrrrr"/>
      <phase duration="3.8050636484" state="yyyrrrrrr"/>
      <phase duration="29.4445507986" state="rrrGGGrrr"/>
      <phase duration="3.8050636484" state="rrryyyrrr"/>
      <phase duration="29.4445507986" state="rrrrrrGGG"/>
      <phase duration="3.8050636484" state="rrrrrryyy"/>
   </tlLogic>
   <tlLogic id="1271504747" offset="0" programID="0" type="static">
      <phase duration="18.430742185" state="Gr"/>
      <phase duration="4.77404505713" state="yr"/>
      <phase duration="18.430742185" state="rG"/>
      <phase duration="4.77404505713" state="ry"/>
   </tlLogic>
   <tlLogic id="1271504756" offset="0" programID="0" type="static">
      <phase duration="14.897635624" state="Gr"/>
      <phase duration="5.70598486623" state="yr"/>
      <phase duration="14.897635624" state="rG"/>
      <phase duration="5.70598486623" state="ry"/>
   </tlLogic>
   <tlLogic id="1271504757" offset="0" programID="0" type="static">
      <phase duration="23.4428650104" state="GGrrr"/>
      <phase duration="9.31633283604" state="yyrrr"/>
      <phase duration="23.4428650104" state="rrGrr"/>
      <phase duration="9.31633283604" state="rryrr"/>
      <phase duration="23.4428650104" state="rrrGG"/>
      <phase duration="9.31633283604" state="rrryy"/>
   </tlLogic>
   <tlLogic id="1271504758" offset="0" programID="0" type="static">
      <phase duration="25.7024546224" state="G"/>
      <phase duration="8.42078181015" state="y"/>
   </tlLogic>
   <tlLogic id="1271504763" offset="0" programID="0" type="static">
      <phase duration="10.825178484" state="G"/>
      <phase duration="8.14190573764" state="y"/>
   </tlLogic>
   <tlLogic id="1271504764" offset="0" programID="0" type="static">
      <phase duration="24.7006303267" state="G"/>
      <phase duration="8.71547772981" state="y"/>
   </tlLogic>
   <tlLogic id="1271504766" offset="0" programID="0" type="static">
      <phase duration="26.5334660341" state="Gr"/>
      <phase duration="5.00581838466" state="yr"/>
      <phase duration="26.5334660341" state="rG"/>
      <phase duration="5.00581838466" state="ry"/>
   </tlLogic>
   <tlLogic id="1271504768" offset="0" programID="0" type="static">
      <phase duration="16.522906782" state="Gr"/>
      <phase duration="7.08950933973" state="yr"/>
      <phase duration="16.522906782" state="rG"/>
      <phase duration="7.08950933973" state="ry"/>
   </tlLogic>
   <tlLogic id="1271504773" offset="0" programID="0" type="static">
      <phase duration="18.0583707879" state="GGrrr"/>
      <phase duration="7.75477000128" state="yyrrr"/>
      <phase duration="18.0583707879" state="rrGrr"/>
      <phase duration="7.75477000128" state="rryrr"/>
      <phase duration="18.0583707879" state="rrrGG"/>
      <phase duration="7.75477000128" state="rrryy"/>
   </tlLogic>
   <tlLogic id="1271504774" offset="0" programID="0" type="static">
      <phase duration="36.3564591041" state="G"/>
      <phase duration="6.18768992241" state="y"/>
   </tlLogic>
   <tlLogic id="1271504788" offset="0" programID="0" type="static">
      <phase duration="23.6243184096" state="GGrrr"/>
      <phase duration="9.89112812808" state="yyrrr"/>
      <phase duration="23.6243184096" state="rrGGG"/>
      <phase duration="9.89112812808" state="rryyy"/>
   </tlLogic>
   <tlLogic id="1271504797" offset="0" programID="0" type="static">
      <phase duration="30.2912368081" state="Gr"/>
      <phase duration="5.91631781571" state="yr"/>
      <phase duration="30.2912368081" state="rG"/>
      <phase duration="5.91631781571" state="ry"/>
   </tlLogic>
   <tlLogic id="1271504803" offset="0" programID="0" type="static">
      <phase duration="19.590460676" state="G"/>
      <phase duration="8.44159859125" state="y"/>
   </tlLogic>
   <tlLogic id="1271504804" offset="0" programID="0" type="static">
      <phase duration="14.749400852" state="Gr"/>
      <phase duration="5.79769162303" state="yr"/>
      <phase duration="14.749400852" state="rG"/>
      <phase duration="5.79769162303" state="ry"/>
   </tlLogic>
   <tlLogic id="1271504815" offset="0" programID="0" type="static">
      <phase duration="4.92171164787" state="Gr"/>
      <phase duration="9.67798273846" state="yr"/>
      <phase duration="4.92171164787" state="rG"/>
      <phase duration="9.67798273846" state="ry"/>
   </tlLogic>
   <tlLogic id="1271504817" offset="0" programID="0" type="static">
      <phase duration="10.9372877061" state="G"/>
      <phase duration="6.96731584963" state="y"/>
   </tlLogic>
   <tlLogic id="1271504819" offset="0" programID="0" type="static">
      <phase duration="21.8427988523" state="Gr"/>
      <phase duration="6.49817649749" state="yr"/>
      <phase duration="21.8427988523" state="rG"/>
      <phase duration="6.49817649749" state="ry"/>
   </tlLogic>
   <tlLogic id="1271504822" offset="0" programID="0" type="static">
      <phase duration="29.7981653591" state="G"/>
      <phase duration="9.23458754491" state="y"/>
   </tlLogic>
   <tlLogic id="1271504824" offset="0" programID="0" type="static">
      <phase duration="19.5295848641" state="G"/>
      <phase duration="4.69456103322" state="y"/>
   </tlLogic>
   <tlLogic id="1271504827" offset="0" programID="0" type="static">
      <phase duration="13.6812858439" state="Gr"/>
      <phase duration="9.02460983308" state="yr"/>
      <phase duration="13.6812858439" state="rG"/>
      <phase duration="9.02460983308" state="ry"/>
   </tlLogic>
   <tlLogic id="1271504829" offset="0" programID="0" type="static">
      <phase duration="23.0528992264" state="Gr"/>
      <phase duration="9.70327091206" state="yr"/>
      <phase duration="23.0528992264" state="rG"/>
      <phase duration="9.70327091206" state="ry"/>
   </tlLogic>
   <tlLogic id="1271504830" offset="0" programID="0" type="static">
      <phase duration="17.1603754701" state="GGrrr"/>
      <phase duration="6.01460984001" state="yyrrr"/>
      <phase duration="17.1603754701" state="rrGrr"/>
      <phase duration="6.01460984001" state="rryrr"/>
      <phase duration="17.1603754701" state="rrrGG"/>
      <phase duration="6.01460984001" state="rrryy"/>
   </tlLogic>
   <tlLogic id="1271504836" offset="0" programID="0" type="static">
      <phase duration="29.3933067016" state="G"/>
      <phase duration="5.95452158727" state="y"/>
   </tlLogic>
   <tlLogic id="1271504841" offset="0" programID="0" type="static">
      <phase duration="12.9037115985" state="G"/>
      <phase duration="7.82562066041" state="y"/>
   </tlLogic>
   <tlLogic id="1271504842" offset="0" programID="0" type="static">
      <phase duration="12.0320593969" state="G"/>
      <phase duration="4.39963628185" state="y"/>
   </tlLogic>
   <tlLogic id="1271504844" offset="0" programID="0" type="static">
      <phase duration="14.9593072997" state="G"/>
      <phase duration="9.25880022253" state="y"/>
   </tlLogic>
   <tlLogic id="1271504845" offset="0" programID="0" type="static">
      <phase duration="37.9303315723" state="G"/>
      <phase duration="1.91900908594" state="y"/>
   </tlLogic>
   <tlLogic id="1271504850" offset="0" programID="0" type="static">
      <phase duration="13.6577310254" state="Gr"/>
      <phase duration="8.00878823961" state="yr"/>
      <phase duration="13.6577310254" state="rG"/>
      <phase duration="8.00878823961" state="ry"/>
   </tlLogic>
   <tlLogic id="1271504852" offset="0" programID="0" type="static">
      <phase duration="21.4938679713" state="G"/>
      <phase duration="7.32584074168" state="y"/>
   </tlLogic>
   <tlLogic id="1271504858" offset="0" programID="0" type="static">
      <phase duration="32.4694538995" state="G"/>
      <phase duration="7.92179069502" state="y"/>
   </tlLogic>
   <tlLogic id="1271504861" offset="0" programID="0" type="static">
      <phase duration="32.9293154212" state="G"/>
      <phase duration="7.48556801733" state="y"/>
   </tlLogic>
   <tlLogic id="1271504871" offset="0" programID="0" type="static">
      <phase duration="13.2770904614" state="GGrr"/>
      <phase duration="7.64925685115" state="yyrr"/>
      <phase duration="13.2770904614" state="rrGG"/>
      <phase duration="7.64925685115" state="rryy"/>
   </tlLogic>
   <tlLogic id="1271504872" offset="0" programID="0" type="static">
      <phase duration="4.96187514464" state="G"/>
      <phase duration="4.57047371374" state="y"/>
   </tlLogic>
   <tlLogic id="1271504875" offset="0" programID="0" type="static">
      <phase duration="30.1265044939" state="G"/>
      <phase duration="4.27052199746" state="y"/>
   </tlLogic>
   <tlLogic id="1271504883" offset="0" programID="0" type="static">
      <phase duration="37.6010974972" state="GGrrr"/>
      <phase duration="7.76622242985" state="yyrrr"/>
      <phase duration="37.6010974972" state="rrGrr"/>
      <phase duration="7.76622242985" state="rryrr"/>
      <phase duration="37.6010974972" state="rrrGG"/>
      <phase duration="7.76622242985" state="rrryy"/>
   </tlLogic>
   <tlLogic id="1271504884" offset="0" programID="0" type="static">
      <phase duration="11.961434788" state="G"/>
      <phase duration="6.70532195202" state="y"/>
   </tlLogic>
   <tlLogic id="1271504887" offset="0" programID="0" type="static">
      <phase duration="17.0867033683" state="G"/>
      <phase duration="3.48651454447" state="y"/>
   </tlLogic>
   <tlLogic id="1271504891" offset="0" programID="0" type="static">
      <phase duration="24.7446240476" state="G"/>
      <phase duration="8.67211347467" state="y"/>
   </tlLogic>
   <tlLogic id="1271504893" offset="0" programID="0" type="static">
      <phase duration="21.6292052016" state="GGrrr"/>
      <phase duration="6.64061819436" state="yyrrr"/>
      <phase duration="21.6292052016" state="rrGrr"/>
      <phase duration="6.64061819436" state="rryrr"/>
      <phase duration="21.6292052016" state="rrrGG"/>
      <phase duration="6.64061819436" state="rrryy"/>
   </tlLogic>
   <tlLogic id="1271504898" offset="0" programID="0" type="static">
      <phase duration="27.1429787762" state="Gr"/>
      <phase duration="4.58181402768" state="yr"/>
      <phase duration="27.1429787762" state="rG"/>
      <phase duration="4.58181402768" state="ry"/>
   </tlLogic>
   <tlLogic id="1271504902" offset="0" programID="0" type="static">
      <phase duration="38.2286541291" state="Gr"/>
      <phase duration="9.89494894729" state="yr"/>
      <phase duration="38.2286541291" state="rG"/>
      <phase duration="9.89494894729" state="ry"/>
   </tlLogic>
   <tlLogic id="1271504905" offset="0" programID="0" type="static">
      <phase duration="18.2933411667" state="G"/>
      <phase duration="6.44807616405" state="y"/>
   </tlLogic>
   <tlLogic id="1271504907" offset="0" programID="0" type="static">
      <phase duration="30.1504780143" state="G"/>
      <phase duration="5.60485623799" state="y"/>
   </tlLogic>
   <tlLogic id="1271504908" offset="0" programID="0" type="static">
      <phase duration="16.8587414615" state="G"/>
      <phase duration="5.64153159736" state="y"/>
   </tlLogic>
   <tlLogic id="1271504911" offset="0" programID="0" type="static">
      <phase duration="26.9618887465" state="G"/>
      <phase duration="3.41470017431" state="y"/>
   </tlLogic>
   <tlLogic id="1271504913" offset="0" programID="0" type="static">
      <phase duration="21.2496904701" state="GGrrr"/>
      <phase duration="5.7759160437" state="yyrrr"/>
      <phase duration="21.2496904701" state="rrGGr"/>
      <phase duration="5.7759160437" state="rryyr"/>
      <phase duration="21.2496904701" state="rrrrG"/>
      <phase duration="5.7759160437" state="rrrry"/>
   </tlLogic>
   <tlLogic id="1271504918" offset="0" programID="0" type="static">
      <phase duration="14.5855329432" state="G"/>
      <phase duration="9.03958083773" state="y"/>
   </tlLogic>
   <tlLogic id="1299369677" offset="0" programID="0" type="static">
      <phase duration="34.9326096362" state="G"/>
      <phase duration="9.00611450543" state="y"/>
   </tlLogic>
   <tlLogic id="1299369678" offset="0" programID="0" type="static">
      <phase duration="36.6357685625" state="G"/>
      <phase duration="5.62662005381" state="y"/>
   </tlLogic>
   <tlLogic id="1299369679" offset="0" programID="0" type="static">
      <phase duration="22.1135486497" state="G"/>
      <phase duration="9.98855368186" state="y"/>
   </tlLogic>
   <tlLogic id="1299369686" offset="0" programID="0" type="static">
      <phase duration="24.6835390509" state="G"/>
      <phase duration="6.960903856" state="y"/>
   </tlLogic>
   <tlLogic id="1299369691" offset="0" programID="0" type="static">
      <phase duration="4.18321860935" state="Gr"/>
      <phase duration="5.67414990622" state="yr"/>
      <phase duration="4.18321860935" state="rG"/>
      <phase duration="5.67414990622" state="ry"/>
   </tlLogic>
   <tlLogic id="1299369697" offset="0" programID="0" type="static">
      <phase duration="25.4920362515" state="G"/>
      <phase duration="3.56475922729" state="y"/>
   </tlLogic>
   <tlLogic id="1299369701" offset="0" programID="0" type="static">
      <phase duration="30.7499836726" state="GGrrr"/>
      <phase duration="8.949577857" state="yyrrr"/>
      <phase duration="30.7499836726" state="rrGrr"/>
      <phase duration="8.949577857" state="rryrr"/>
      <phase duration="30.7499836726" state="rrrGG"/>
      <phase duration="8.949577857" state="rrryy"/>
   </tlLogic>
   <tlLogic id="1312812204" offset="0" programID="0" type="static">
      <phase duration="20.3150492934" state="G"/>
      <phase duration="6.96469170474" state="y"/>
   </tlLogic>
   <tlLogic id="1366801174" offset="0" programID="0" type="static">
      <phase duration="32.1802347888" state="G"/>
      <phase duration="6.1915657446" state="y"/>
   </tlLogic>
   <tlLogic id="1366801185" offset="0" programID="0" type="static">
      <phase duration="15.2238319294" state="G"/>
      <phase duration="9.26846469927" state="y"/>
   </tlLogic>
   <tlLogic id="1366801191" offset="0" programID="0" type="static">
      <phase duration="18.7451947347" state="G"/>
      <phase duration="9.58501939068" state="y"/>
   </tlLogic>
   <tlLogic id="1366801194" offset="0" programID="0" type="static"/>
   <tlLogic id="1366801200" offset="0" programID="0" type="static">
      <phase duration="14.053046644" state="Gr"/>
      <phase duration="6.39510479572" state="yr"/>
      <phase duration="14.053046644" state="rG"/>
      <phase duration="6.39510479572" state="ry"/>
   </tlLogic>
   <tlLogic id="1366801262" offset="0" programID="0" type="static">
      <phase duration="26.9450605184" state="G"/>
      <phase duration="7.4818628444" state="y"/>
   </tlLogic>
   <tlLogic id="1492679675" offset="0" programID="0" type="static">
      <phase duration="31.0594625" state="Gr"/>
      <phase duration="9.87933991407" state="yr"/>
      <phase duration="31.0594625" state="rG"/>
      <phase duration="9.87933991407" state="ry"/>
   </tlLogic>
   <tlLogic id="1492679681" offset="0" programID="0" type="static">
      <phase duration="18.3468792633" state="G"/>
      <phase duration="9.72048178427" state="y"/>
   </tlLogic>
   <tlLogic id="1492679714" offset="0" programID="0" type="static">
      <phase duration="24.8356029275" state="Gr"/>
      <phase duration="6.93633404062" state="yr"/>
      <phase duration="24.8356029275" state="rG"/>
      <phase duration="6.93633404062" state="ry"/>
   </tlLogic>
   <tlLogic id="1492679718" offset="0" programID="0" type="static"/>
   <tlLogic id="1492679731" offset="0" programID="0" type="static">
      <phase duration="21.2323225276" state="Gr"/>
      <phase duration="4.40936207667" state="yr"/>