<?xml version="1.0" ?>
<tlLogics>
   <tlLogic id="1000099475" offset="0" programID="0" type="static">
      <phase duration="8.80343037724" state="GG"/>
      <phase duration="7.24208930606" state="yy"/>
   </tlLogic>
   <tlLogic id="1000099520" offset="0" programID="0" type="static">
      <phase duration="13.3537337818" state="G"/>
      <phase duration="2.89945498674" state="y"/>
   </tlLogic>
   <tlLogic id="1000099551" offset="0" programID="0" type="static">
      <phase duration="37.7981775388" state="G"/>
      <phase duration="7.98327398409" state="y"/>
   </tlLogic>
   <tlLogic id="1000099553" offset="0" programID="0" type="static">
      <phase duration="37.4084556619" state="Gr"/>
      <phase duration="4.92476875355" state="yr"/>
      <phase duration="37.4084556619" state="rG"/>
      <phase duration="4.92476875355" state="ry"/>
   </tlLogic>
   <tlLogic id="1000099576" offset="0" programID="0" type="static">
      <phase duration="14.349533149" state="Grrrr"/>
      <phase duration="7.47312797382" state="yrrrr"/>
      <phase duration="14.349533149" state="rGGrr"/>
      <phase duration="7.47312797382" state="ryyrr"/>
      <phase duration="14.349533149" state="rrrGG"/>
      <phase duration="7.47312797382" state="rrryy"/>
   </tlLogic>
   <tlLogic id="1000099650" offset="0" programID="0" type="static">
      <phase duration="15.2141591272" state="G"/>
      <phase duration="2.81958582577" state="y"/>
   </tlLogic>
   <tlLogic id="1000099741" offset="0" programID="0" type="static">
      <phase duration="3.30581050263" state="GGrr"/>
      <phase duration="5.90275857161" state="yyrr"/>
      <phase duration="3.30581050263" state="rrGG"/>
      <phase duration="5.90275857161" state="rryy"/>
   </tlLogic>
   <tlLogic id="1000099788" offset="0" programID="0" type="static">
      <phase duration="34.1112732035" state="GGrr"/>
      <phase duration="8.08749219449" state="yyrr"/>
      <phase duration="34.1112732035" state="rrGG"/>
      <phase duration="8.08749219449" state="rryy"/>
   </tlLogic>
   <tlLogic id="1012321573" offset="0" programID="0" type="static">
      <phase duration="6.82165635409" state="Gr"/>
      <phase duration="7.358356071" state="yr"/>
      <phase duration="6.82165635409" state="rG"/>
      <phase duration="7.358356071" state="ry"/>
   </tlLogic>
   <tlLogic id="1028832186" offset="0" programID="0" type="static"/>
   <tlLogic id="1028832536" offset="0" programID="0" type="static"/>
   <tlLogic id="1037290822" offset="0" programID="0" type="static">
      <phase duration="12.6602477169" state="GGrr"/>
      <phase duration="6.26032365793" state="yyrr"/>
      <phase duration="12.6602477169" state="rrGG"/>
      <phase duration="6.26032365793" state="rryy"/>
   </tlLogic>
   <tlLogic id="1037290889" offset="0" programID="0" type="static">
      <phase duration="32.5040587203" state="GGrr"/>
      <phase duration="9.33118106925" state="yyrr"/>
      <phase duration="32.5040587203" state="rrGG"/>
      <phase duration="9.33118106925" state="rryy"/>
   </tlLogic>
   <tlLogic id="1037290944" offset="0" programID="0" type="static">
      <phase duration="2.99285739475" state="G"/>
      <phase duration="8.79147553262" state="y"/>
   </tlLogic>
   <tlLogic id="1045044692" offset="0" programID="0" type="static">
      <phase duration="5.92893496624" state="Gr"/>
      <phase duration="9.97641207999" state="yr"/>
      <phase duration="5.92893496624" state="rG"/>
      <phase duration="9.97641207999" state="ry"/>
   </tlLogic>
   <tlLogic id="1045044715" offset="0" programID="0" type="static">
      <phase duration="10.2211334549" state="Gr"/>
      <phase duration="8.55265903555" state="yr"/>
      <phase duration="10.2211334549" state="rG"/>
      <phase duration="8.55265903555" state="ry"/>
   </tlLogic>
   <tlLogic id="1045044750" offset="0" programID="0" type="static">
      <phase duration="28.8290987617" state="Gr"/>
      <phase duration="8.73474142628" state="yr"/>
      <phase duration="28.8290987617" state="rG"/>
      <phase duration="8.73474142628" state="ry"/>
   </tlLogic>
   <tlLogic id="1062771990" offset="0" programID="0" type="static">
      <phase duration="38.1926461895" state="G"/>
      <phase duration="6.82834324277" state="y"/>
   </tlLogic>
   <tlLogic id="1150667539" offset="0" programID="0" type="static">
      <phase duration="32.3156159524" state="G"/>
      <phase duration="9.78448393712" state="y"/>
   </tlLogic>
   <tlLogic id="1150667552" offset="0" programID="0" type="static">
      <phase duration="26.7318923472" state="Gr"/>
      <phase duration="9.16948801609" state="yr"/>
      <phase duration="26.7318923472" state="rG"/>
      <phase duration="9.16948801609" state="ry"/>
   </tlLogic>
   <tlLogic id="1150667555" offset="0" programID="0" type="static">
      <phase duration="9.39640640408" state="Gr"/>
      <phase duration="1.05604754789" state="yr"/>
      <phase duration="9.39640640408" state="rG"/>
      <phase duration="1.05604754789" state="ry"/>
   </tlLogic>
   <tlLogic id="1150667558" offset="0" programID="0" type="static">
      <phase duration="26.360838596" state="Gr"/>
      <phase duration="1.54273933449" state="yr"/>
      <phase duration="26.360838596" state="rG"/>
      <phase duration="1.54273933449" state="ry"/>
   </tlLogic>
   <tlLogic id="1150667560" offset="0" programID="0" type="static">
      <phase duration="4.35982398155" state="G"/>
      <phase duration="7.68751147325" state="y"/>
   </tlLogic>
   <tlLogic id="1150667568" offset="0" programID="0" type="static"/>
   <tlLogic id="1150667571" offset="0" programID="0" type="static">
      <phase duration="33.7167444961" state="G"/>
      <phase duration="8.1493736582" state="y"/>
   </tlLogic>
   <tlLogic id="1150667603" offset="0" programID="0" type="static">
      <phase duration="37.9580821974" state="Gr"/>
      <phase duration="6.28485237592" state="yr"/>
      <phase duration="37.9580821974" state="rG"/>
      <phase duration="6.28485237592" state="ry"/>
   </tlLogic>
   <tlLogic id="1150667604" offset="0" programID="0" type="static">
      <phase duration="38.5286800509" state="Gr"/>
      <phase duration="6.79171379445" state="yr"/>
      <phase duration="38.5286800509" state="rG"/>
      <phase duration="6.79171379445" state="ry"/>
   </tlLogic>
   <tlLogic id="1150667622" offset="0" programID="0" type="static">
      <phase duration="23.7511602228" state="G"/>
      <phase duration="9.46312134884" state="y"/>
   </tlLogic>
   <tlLogic id="1156723779" offset="0" programID="0" type="static">
      <phase duration="18.5358763221" state="GGrrr"/>
      <phase duration="5.48199720364" state="yyrrr"/>
      <phase duration="18.5358763221" state="rrGrr"/>
      <phase duration="5.48199720364" state="rryrr"/>
      <phase duration="18.5358763221" state="rrrGG"/>
      <phase duration="5.48199720364" state="rrryy"/>
   </tlLogic>
   <tlLogic id="1156723839" offset="0" programID="0" type="static">
      <phase duration="13.3824070435" state="Gr"/>
      <phase duration="7.02658720034" state="yr"/>
      <phase duration="13.3824070435" state="rG"/>
      <phase duration="7.02658720034" state="ry"/>
   </tlLogic>
   <tlLogic id="1157698150" offset="0" programID="0" type="static">
      <phase duration="14.5464644529" state="G"/>
      <phase duration="8.75585954584" state="y"/>
   </tlLogic>
   <tlLogic id="1201745377" offset="0" programID="0" type="static">
      <phase duration="15.1059941726" state="G"/>
      <phase duration="4.52378242461" state="y"/>
   </tlLogic>
   <tlLogic id="1211136595" offset="0" programID="0" type="static">
      <phase duration="39.1706025188" state="G"/>
      <phase duration="2.70988521089" state="y"/>
   </tlLogic>
   <tlLogic id="1211136870" offset="0" programID="0" type="static">
      <phase duration="2.78108156618" state="GGrr"/>
      <phase duration="9.63702956033" state="yyrr"/>
      <phase duration="2.78108156618" state="rrGG"/>
      <phase duration="9.63702956033" state="rryy"/>
   </tlLogic>
   <tlLogic id="1220020588" offset="0" programID="0" type="static">
      <phase duration="22.6996814631" state="GGrr"/>
      <phase duration="8.43502801647" state="yyrr"/>
      <phase duration="22.6996814631" state="rrGG"/>
      <phase duration="8.43502801647" state="rryy"/>
   </tlLogic>
   <tlLogic id="1220020592" offset="0" programID="0" type="static">
      <phase duration="23.1410136219" state="Gr"/>
      <phase duration="3.58879257155" state="yr"/>
      <phase duration="23.1410136219" state="rG"/>
      <phase duration="3.58879257155" state="ry"/>
   </tlLogic>
   <tlLogic id="1220020656" offset="0" programID="0" type="static">
      <phase duration="4.85426993666" state="GGrr"/>
      <phase duration="3.8440180685" state="yyrr"/>
      <phase duration="4.85426993666" state="rrGG"/>
      <phase duration="3.8440180685" state="rryy"/>
   </tlLogic>
   <tlLogic id="1220020679" offset="0" programID="0" type="static">
      <phase duration="37.1449618202" state="GGrr"/>
      <phase duration="7.17128042982" state="yyrr"/>
      <phase duration="37.1449618202" state="rrGG"/>
      <phase duration="7.17128042982" state="rryy"/>
   </tlLogic>
   <tlLogic id="1229522502" offset="0" programID="0" type="static">
      <phase duration="2.3317606085" state="Gr"/>
      <phase duration="9.83669597585" state="yr"/>
      <phase duration="2.3317606085" state="rG"/>
      <phase duration="9.83669597585" state="ry"/>
   </tlLogic>
   <tlLogic id="1229522554" offset="0" programID="0" type="static">
      <phase duration="2.5711685034" state="G"/>
      <phase duration="5.85932470152" state="y"/>
   </tlLogic>
   <tlLogic id="1252285079" offset="0" programID="0" type="static">
      <phase duration="17.733452964" state="Gr"/>
      <phase duration="1.83664223833" state="yr"/>
      <phase duration="17.733452964" state="rG"/>
      <phase duration="1.83664223833" state="ry"/>
   </tlLogic>
   <tlLogic id="1252285082" offset="0" programID="0" type="static">
      <phase duration="15.4551535397" state="G"/>
      <phase duration="3.66901835974" state="y"/>
   </tlLogic>
   <tlLogic id="1252285085" offset="0" programID="0" type="static">
      <phase duration="15.6157557863" state="Gr"/>
      <phase duration="4.30564470068" state="yr"/>
      <phase duration="15.6157557863" state="rG"/>
      <phase duration="4.30564470068" state="ry"/>
   </tlLogic>
   <tlLogic id="1252285092" offset="0" programID="0" type="static">
      <phase duration="7.87079374802" state="G"/>
      <phase duration="8.39625802967" state="y"/>
   </tlLogic>
   <tlLogic id="1252285093" offset="0" programID="0" type="static">
      <phase duration="22.9393950851" state="Gr"/>
      <phase duration="3.40366934888" state="yr"/>
      <phase duration="22.9393950851" state="rG"/>
      <phase duration="3.40366934888" state="ry"/>
   </tlLogic>
   <tlLogic id="1252285105" offset="0" programID="0" type="static">
      <phase duration="1.55451743476" state="G"/>
      <phase duration="7.71815190789" state="y"/>
   </tlLogic>
   <tlLogic id="1252285107" offset="0" programID="0" type="static">
      <phase duration="22.1762070005" state="G"/>
      <phase duration="1.7766889553" state="y"/>
   </tlLogic>
   <tlLogic id="1252285133" offset="0" programID="0" type="static">
      <phase duration="13.9452354682" state="Gr"/>
      <phase duration="4.47793295197" state="yr"/>
      <phase duration="13.9452354682" state="rG"/>
      <phase duration="4.47793295197" state="ry"/>
   </tlLogic>
   <tlLogic id="1252285138" offset="0" programID="0" type="static">
      <phase duration="3.84479904041" state="G"/>
      <phase duration="5.83563873215" state="y"/>
   </tlLogic>
   <tlLogic id="1264255381" offset="0" programID="0" type="static">
      <phase duration="25.2870370331" state="GGGrrrrrr"/>
      <phase duration="9.47248264467" state="yyyrrrrrr"/>
      <phase duration="25.2870370331" state="rrrGGGrrr"/>
      <phase duration="9.47248264467" state="rrryyyrrr"/>
      <phase duration="25.2870370331" state="rrrrrrGGG"/>
      <phase duration="9.47248264467" state="rrrrrryyy"/>
   </tlLogic>
   <tlLogic id="1271504738" offset="0" programID="0" type="static">
      <phase duration="32.1512769139" state="Gr"/>
      <phase duration="1.38205796439" state="yr"/>
      <phase duration="32.1512769139" state="rG"/>
      <phase duration="1.38205796439" state="ry"/>
   </tlLogic>
   <tlLogic id="1271504743" offset="0" programID="0" type="static">
      <phase duration="35.9692660176" state="G"/>
      <phase duration="4.1682380951" state="y"/>
   </tlLogic>
   <tlLogic id="1271504747" offset="0" programID="0" type="static">
      <phase duration="20.6747384778" state="Gr"/>
      <phase duration="5.54117591571" state="yr"/>
      <phase duration="20.6747384778" state="rG"/>
      <phase duration="5.54117591571" state="ry"/>
   </tlLogic>
   <tlLogic id="1271504750" offset="0" programID="0" type="static">
      <phase duration="10.181588532" state="G"/>
      <phase duration="2.1519444613" state="y"/>
   </tlLogic>
   <tlLogic id="1271504756" offset="0" programID="0" type="static">
      <phase duration="24.6125330095" state="Gr"/>
      <phase duration="7.67257582445" state="yr"/>
      <phase duration="24.6125330095" state="rG"/>
      <phase duration="7.67257582445" state="ry"/>
   </tlLogic>
   <tlLogic id="1271504763" offset="0" programID="0" type="static">
      <phase duration="33.4068192306" state="G"/>
      <phase duration="3.2182118832" state="y"/>
   </tlLogic>
   <tlLogic id="1271504766" offset="0" programID="0" type="static">
      <phase duration="21.8428200871" state="Gr"/>
      <phase duration="8.7653833552" state="yr"/>
      <phase duration="21.8428200871" state="rG"/>
      <phase duration="8.7653833552" state="ry"/>
   </tlLogic>
   <tlLogic id="1271504767" offset="0" programID="0" type="static">
      <phase duration="29.383826753" state="G"/>
      <phase duration="7.39886720642" state="y"/>
   </tlLogic>
   <tlLogic id="1271504775" offset="0" programID="0" type="static">
      <phase duration="3.84888014461" state="Gr"/>
      <phase duration="6.07237684869" state="yr"/>
      <phase duration="3.84888014461" state="rG"/>
      <phase duration="6.07237684869" state="ry"/>
   </tlLogic>
   <tlLogic id="1271504778" offset="0" programID="0" type="static">
      <phase duration="29.2107525051" state="G"/>
      <phase duration="5.84765507165" state="y"/>
   </tlLogic>
   <tlLogic id="1271504797" offset="0" programID="0" type="static">
      <phase duration="28.7469393768" state="Gr"/>
      <phase duration="3.8836428682" state="yr"/>
      <phase duration="28.7469393768" state="rG"/>
      <phase duration="3.8836428682" state="ry"/>
   </tlLogic>
   <tlLogic id="1271504801" offset="0" programID="0" type="static">
      <phase duration="2.31412172074" state="G"/>
      <phase duration="7.60016432481" state="y"/>
   </tlLogic>
   <tlLogic id="1271504803" offset="0" programID="0" type="static">
      <phase duration="18.7519070637" state="G"/>
      <phase duration="1.1746027337" state="y"/>
   </tlLogic>
   <tlLogic id="1271504813" offset="0" programID="0" type="static">
      <phase duration="5.39280136948" state="G"/>
      <phase duration="9.7008284801" state="y"/>
   </tlLogic>
   <tlLogic id="1271504814" offset="0" programID="0" type="static">
      <phase duration="7.21222530459" state="G"/>
      <phase duration="4.01288049466" state="y"/>
   </tlLogic>
   <tlLogic id="1271504817" offset="0" programID="0" type="static">
      <phase duration="6.14506094451" state="G"/>
      <phase duration="2.34538159928" state="y"/>
   </tlLogic>
   <tlLogic id="1271504819" offset="0" programID="0" type="static">
      <phase duration="12.7271173986" state="Gr"/>
      <phase duration="6.04241586309" state="yr"/>
      <phase duration="12.7271173986" state="rG"/>
      <phase duration="6.04241586309" state="ry"/>
   </tlLogic>
   <tlLogic id="1271504822" offset="0" programID="0" type="static">
      <phase duration="10.8237475015" state="G"/>
      <phase duration="7.68229959071" state="y"/>
   </tlLogic>
   <tlLogic id="1271504827" offset="0" programID="0" type="static">
      <phase duration="12.2780172035" state="Gr"/>
      <phase duration="3.02216600993" state="yr"/>
      <phase duration="12.2780172035" state="rG"/>
      <phase duration="3.02216600993" state="ry"/>
   </tlLogic>
   <tlLogic id="1271504828" offset="0" programID="0" type="static">
      <phase duration="25.9128332732" state="GGrrr"/>
      <phase duration="7.87915624053" state="yyrrr"/>
      <phase duration="25.9128332732" state="rrGrr"/>
      <phase duration="7.87915624053" state="rryrr"/>
      <phase duration="25.9128332732" state="rrrGG"/>
      <phase duration="7.87915624053" state="rrryy"/>
   </tlLogic>
   <tlLogic id="1271504830" offset="0" programID="0" type="static">
      <phase duration="39.4815763129" state="GGrrr"/>
      <phase duration="1.842728806" state="yyrrr"/>
      <phase duration="39.4815763129" state="rrGrr"/>
      <phase duration="1.842728806" state="rryrr"/>
      <phase duration="39.4815763129" state="rrrGG"/>
      <phase duration="1.842728806" state="rrryy"/>
   </tlLogic>
   <tlLogic id="1271504831" offset="0" programID="0" type="static">
      <phase duration="34.425478019" state="G"/>
      <phase duration="5.98142604795" state="y"/>
   </tlLogic>
   <tlLogic id="1271504832" offset="0" programID="0" type="static">
      <phase duration="24.2895991963" state="Gr"/>
      <phase duration="5.58591563129" state="yr"/>
      <phase duration="24.2895991963" state="rG"/>
      <phase duration="5.58591563129" state="ry"/>
   </tlLogic>
   <tlLogic id="1271504834" offset="0" programID="0" type="static">
      <phase duration="36.9424196688" state="G"/>
      <phase duration="6.65722990728" state="y"/>
   </tlLogic>
   <tlLogic id="1271504841" offset="0" programID="0" type="static">
      <phase duration="31.1705750582" state="G"/>
      <phase duration="4.70398074976" state="y"/>
   </tlLogic>
   <tlLogic id="1271504843" offset="0" programID="0" type="static">
      <phase duration="9.07725020924" state="Gr"/>
      <phase duration="7.64311007211" state="yr"/>
      <phase duration="9.07725020924" state="rG"/>
      <phase duration="7.64311007211" state="ry"/>
   </tlLogic>
   <tlLogic id="1271504844" offset="0" programID="0" type="static">
      <phase duration="20.3777927711" state="G"/>
      <phase duration="8.74243611541" state="y"/>
   </tlLogic>
   <tlLogic id="1271504845" offset="0" programID="0" type="static">
      <phase duration="26.2234998601" state="G"/>
      <phase duration="5.0990774589" state="y"/>
   </tlLogic>
   <tlLogic id="1271504852" offset="0" programID="0" type="static">
      <phase duration="16.5578483237" state="G"/>
      <phase duration="2.5071371248" state="y"/>
   </tlLogic>
   <tlLogic id="1271504855" offset="0" programID="0" type="static">
      <phase duration="1.41352289708" state="Gr"/>
      <phase duration="9.17072248102" state="yr"/>
      <phase duration="1.41352289708" state="rG"/>
      <phase duration="9.17072248102" state="ry"/>
   </tlLogic>
   <tlLogic id="1271504858" offset="0" programID="0" type="static">
      <phase duration="39.524606285" state="G"/>
      <phase duration="5.82809518451" state="y"/>
   </tlLogic>
   <tlLogic id="1271504861" offset="0" programID="0" type="static">
      <phase duration="21.8797076818" state="G"/>
      <phase duration="7.60004778288" state="y"/>
   </tlLogic>
   <tlLogic id="1271504864" offset="0" programID="0" type="static">
      <phase duration="17.5311795363" state="G"/>
      <phase duration="4.77971414648" state="y"/>
   </tlLogic>
   <tlLogic id="1271504866" offset="0" programID="0" type="static">
      <phase duration="8.46409739039" state="G"/>
      <phase duration="5.01218401332" state="y"/>
   </tlLogic>
   <tlLogic id="1271504867" offset="0" programID="0" type="static">
      <phase duration="13.3128481604" state="G"/>
      <phase duration="8.87985355014" state="y"/>
   </tlLogic>
   <tlLogic id="1271504870" offset="0" programID="0" type="static">
      <phase duration="34.8248127859" state="G"/>
      <phase duration="3.76086016962" state="y"/>
   </tlLogic>
   <tlLogic id="1271504872" offset="0" programID="0" type="static">
      <phase duration="3.16063027371" state="G"/>
      <phase duration="4.54722540404" state="y"/>
   </tlLogic>
   <tlLogic id="1271504875" offset="0" programID="0" type="static">
      <phase duration="11.482959883" state="G"/>
      <phase duration="5.54086577513" state="y"/>
   </tlLogic>
   <tlLogic id="1271504883" offset="0" programID="0" type="static">
      <phase duration="37.0400849329" state="GGrrr"/>
      <phase duration="7.08646730721" state="yyrrr"/>
      <phase duration="37.0400849329" state="rrGrr"/>
      <phase duration="7.08646730721" state="rryrr"/>
      <phase duration="37.0400849329" state="rrrGG"/>
      <phase duration="7.08646730721" state="rrryy"/>
   </tlLogic>
   <tlLogic id="1271504884" offset="0" programID="0" type="static">
      <phase duration="4.37664587714" state="G"/>
      <phase duration="8.43143801331" state="y"/>
   </tlLogic>
   <tlLogic id="1271504891" offset="0" programID="0" type="static">
      <phase duration="4.31811305222" state="G"/>
      <phase duration="1.25149339439" state="y"/>
   </tlLogic>
   <tlLogic id="1271504898" offset="0" programID="0" type="static">
      <phase duration="24.8981090134" state="Gr"/>
      <phase duration="7.3592724636" state="yr"/>
      <phase duration="24.8981090134" state="rG"/>
      <phase duration="7.3592724636" state="ry"/>
   </tlLogic>
   <tlLogic id="1271504902" offset="0" programID="0" type="static">
      <phase duration="28.7616297952" state="Gr"/>
      <phase duration="6.04671783612" state="yr"/>
      <phase duration="28.7616297952" state="rG"/>
      <phase duration="6.04671783612" state="ry"/>
   </tlLogic>
   <tlLogic id="1271504904" offset="0" programID="0" type="static">
      <phase duration="28.624795381" state="Grr"/>
      <phase duration="4.02190980738" state="yrr"/>
      <phase duration="28.624795381" state="rGG"/>
      <phase duration="4.02190980738" state="ryy"/>
   </tlLogic>
   <tlLogic id="1271504905" offset="0" programID="0" type="static">
      <phase duration="26.5656661639" state="G"/>
      <phase duration="1.95811285573" state="y"/>
   </tlLogic>
   <tlLogic id="1271504907" offset="0" programID="0" type="static">
      <phase duration="5.64681686669" state="G"/>
      <phase duration="4.95335558267" state="y"/>
   </tlLogic>
   <tlLogic id="1271504913" offset="0" programID="0" type="static">
      <phase duration="38.0201516493" state="GGrrr"/>
      <phase duration="8.04772666909" state="yyrrr"/>
      <phase duration="38.0201516493" state="rrGGr"/>
      <phase duration="8.04772666909" state="rryyr"/>
      <phase duration="38.0201516493" state="rrrrG"/>
      <phase duration="8.04772666909" state="rrrry"/>
   </tlLogic>
   <tlLogic id="1271504914" offset="0" programID="0" type="static">
      <phase duration="37.3627318307" state="G"/>
      <phase duration="4.51181185017" state="y"/>
   </tlLogic>
   <tlLogic id="1271504918" offset="0" programID="0" type="static">
      <phase duration="1.17168394687" state="G"/>
      <phase duration="3.13901227436" state="y"/>
   </tlLogic>
   <tlLogic id="1298727142" offset="0" programID="0" type="static">
      <phase duration="13.5222798268" state="Gr"/>
      <phase duration="8.87790510278" state="yr"/>
      <phase duration="13.5222798268" state="rG"/>
      <phase duration="8.87790510278" state="ry"/>
   </tlLogic>
   <tlLogic id="1299369689" offset="0" programID="0" type="static">
      <phase duration="23.2775104556" state="GGrrr"/>
      <phase duration="5.32176092557" state="yyrrr"/>
      <phase duration="23.2775104556" state="rrGrr"/>
      <phase duration="5.32176092557" state="rryrr"/>
      <phase duration="23.2775104556" state="rrrGG"/>
      <phase duration="5.32176092557" state="rrryy"/>
   </tlLogic>
   <tlLogic id="1299369694" offset="0" programID="0" type="static">
      <phase duration="26.5319491513" state="G"/>
      <phase duration="8.4893493288" state="y"/>
   </tlLogic>
   <tlLogic id="1299369697" offset="0" programID="0" type="static">
      <phase duration="15.6897682346" state="G"/>
      <phase duration="7.15635755965" state="y"/>
   </tlLogic>
   <tlLogic id="1299369701" offset="0" programID="0" type="static">
      <phase duration="22.7698043568" state="GGrrr"/>
      <phase duration="6.06716028445" state="yyrrr"/>
      <phase duration="22.7698043568" state="rrGrr"/>
      <phase duration="6.06716028445" state="rryrr"/>
      <phase duration="22.7698043568" state="rrrGG"/>
      <phase duration="6.06716028445" state="rrryy"/>
   </tlLogic>
   <tlLogic id="1312440715" offset="0" programID="0" type="static">
      <phase duration="15.0818009291" state="Gr"/>
      <phase duration="9.62890825836" state="yr"/>
      <phase duration="15.0818009291" state="rG"/>
      <phase duration="9.62890825836" state="ry"/>
   </tlLogic>
   <tlLogic id="1353566368" offset="0" programID="0" type="static">
      <phase duration="6.25159641845" state="G"/>
      <phase duration="2.84735735596" state="y"/>
   </tlLogic>
   <tlLogic id="1360932319" offset="0" programID="0" type="static"/>
   <tlLogic id="1366801194" offset="0" programID="0" type="static"/>
   <tlLogic id="1366801200" offset="0" programID="0" type="static">
      <phase duration="32.7240717786" state="Gr"/>
      <phase duration="1.93499961865" state="yr"/>
      <phase duration="32.7240717786" state="rG"/>
      <phase duration="1.93499961865" state="ry"/>
   </tlLogic>
   <tlLogic id="1366801204" offset="0" programID="0" type="static">
      <phase duration="11.7818089672" state="G"/>
      <phase duration="9.07872388232" state="y"/>
   </tlLogic>
   <tlLogic id="1366801217" offset="0" programID="0" type="static">
      <phase duration="11.9425469775" state="G"/>
      <phase duration="6.98712648034" state="y"/>
   </tlLogic>
   <tlLogic id="1366801221" offset="0" programID="0" type="static">
      <phase duration="17.0079287049" state="Gr"/>
      <phase duration="7.83382918392" state="yr"/>
      <phase duration="17.0079287049" state="rG"/>
      <phase duration="7.83382918392" state="ry"/>
   </tlLogic>
   <tlLogic id="1366801267" offset="0" programID="0" type="static">
      <phase duration="21.844162407" state="Grr"/>
      <phase duration="5.88703746524" state="yrr"/>
      <phase duration="21.844162407" state="rGr"/>
      <phase duration="5.88703746524" state="ryr"/>
      <phase duration="21.844162407" state="rrG"/>
      <phase duration="5.88703746524" state="rry"/>
   </tlLogic>
   <tlLogic id="1492679675" offset="0" programID="0" type="static">
      <phase duration="32.2167568756" state="Gr"/>
      <phase duration="1.1864350937" state="yr"/>
      <phase duration="32.2167568756" state="rG"/>
      <phase duration="1.1864350937" state="ry"/>
   </tlLogic>
   <tlLogic id="1492679681" offset="0" programID="0" type="static">
      <phase duration="5.41030903612" state="G"/>
      <phase duration="8.71002939533" state="y"/>
   </tlLogic>
   <tlLogic id="1492679696" offset="0" programID="0" type="static">
      <phase duration="16.8285387874" state="Gr"/>
      <phase duration="4.74926660275" state="yr"/>
      <phase duration="16.8285387874" state="rG"/>
      <phase duration="4.74926660275" state="ry"/>
   </tlLogic>
   <tlLogic id="1492679714" offset="0" programID="0" type="static">
      <phase duration="35.7055495352" state="Gr"/>
      <phase duration="2.47515643193" state="yr"/>
      <phase duration="35.7055495352" state="rG"/>
      <phase duration="2.47515643193" state="ry"/>
   </tlLogic>
   <tlLogic id="1492679729" offset="0" programID="0" type="static">
      <phase duration="5.02143493687" state="G"/>
      <phase duration="9.44841715952" state="y"/>
   </tlLogic>
   <tlLogic id="1492679733" offset="0" programID="0" type="static">
      <phase duration="15.9155291058" state="Gr"/>
      <phase duration="3.30573616032" state="yr"/>
      <phase duration="15.9155291058" state="rG"/>
      <phase duration="3.30573616032" state="ry"/>
   </tlLogic>
   <tlLogic id="1492679747" offset="0" programID="0" type="static">
      <phase duration="33.6612130048" state="Gr"/>
      <phase duration="6.34131114505" state="yr"/>
      <phase duration="33.6612130048" state="rG"/>
      <phase duration="6.34131114505" state="ry"/>
   </tlLogic>
   <tlLogic id="1492679753" offset="0" programID="0" type="static">
      <phase duration="16.2382446499" state="G"/>
      <phase duration="7.30798135851" state="y"/>
   </tlLogic>
   <tlLogic id="1492679755" offset="0" programID="0" type="static">
      <phase duration="31.8211465828" state="G"/>
      <phase duration="7.29034309747" state="y"/>
   </tlLogic>
   <tlLogic id="1492729095" offset="0" programID="0" type="static">
      <phase duration="13.6878274262" state="G"/>
      <phase duration="6.736283584" state="y"/>
   </tlLogic>
   <tlLogic id="1492729097" offset="0" programID="0" type="static">
      <phase duration="19.3510864027" state="Gr"/>
      <phase duration="3.7165940051" state="yr"/>
      <phase duration="19.3510864027" state="rG"/>
      <phase duration="3.7165940051" state="ry"/>
   </tlLogic>
   <tlLogic id="1492802030" offset="0" programID="0" type="static">
      <phase duration="6.06384880678" state="GGrr"/>
      <phase duration="8.42464484294" state="yyrr"/>
      <phase duration="6.06384880678" state="rrGG"/>
      <phase duration="8.42464484294" state="rryy"/>
   </tlLogic>
   <tlLogic id="1492802032" offset="0" programID="0" type="static">
      <phase duration="3.13208599401" state="G"/>
      <phase duration="8.48012464518" state="y"/>
   </tlLogic>
   <tlLogic id="1492802034" offset="0" programID="0" type="static">
      <phase duration="16.2697665086" state="G"/>