<?xml version="1.0" ?>
<tlLogics>
   <tlLogic id="1000099468" offset="0" programID="0" type="static">
      <phase duration="38.3791450953" state="G"/>
      <phase duration="2.54895554606" state="y"/>
   </tlLogic>
   <tlLogic id="1000099503" offset="0" programID="0" type="static">
      <phase duration="38.840824657" state="GGGrrrrrrrr"/>
      <phase duration="3.45076529587" state="yyyrrrrrrrr"/>
      <phase duration="38.840824657" state="rrrGGGrrrrr"/>
      <phase duration="3.45076529587" state="rrryyyrrrrr"/>
      <phase duration="38.840824657" state="rrrrrrGGGGG"/>
      <phase duration="3.45076529587" state="rrrrrryyyyy"/>
   </tlLogic>
   <tlLogic id="1000099520" offset="0" programID="0" type="static">
      <phase duration="8.89542830767" state="G"/>
      <phase duration="5.3429288996" state="y"/>
   </tlLogic>
   <tlLogic id="1000099551" offset="0" programID="0" type="static">
      <phase duration="19.9951811493" state="G"/>
      <phase duration="3.18736854336" state="y"/>
   </tlLogic>
   <tlLogic id="1000099591" offset="0" programID="0" type="static">
      <phase duration="9.61753629036" state="GGrr"/>
      <phase duration="6.67815315425" state="yyrr"/>
      <phase duration="9.61753629036" state="rrGG"/>
      <phase duration="6.67815315425" state="rryy"/>
   </tlLogic>
   <tlLogic id="1000099607" offset="0" programID="0" type="static">
      <phase duration="17.8477463406" state="GGr"/>
      <phase duration="4.35576676627" state="yyr"/>
      <phase duration="17.8477463406" state="rrG"/>
      <phase duration="4.35576676627" state="rry"/>
   </tlLogic>
   <tlLogic id="1000099650" offset="0" programID="0" type="static">
      <phase duration="28.3809725886" state="G"/>
      <phase duration="9.01945305092" state="y"/>
   </tlLogic>
   <tlLogic id="1000099724" offset="0" programID="0" type="static">
      <phase duration="4.03761606799" state="Grrr"/>
      <phase duration="4.8479599615" state="yrrr"/>
      <phase duration="4.03761606799" state="rGGG"/>
      <phase duration="4.8479599615" state="ryyy"/>
   </tlLogic>
   <tlLogic id="1000099741" offset="0" programID="0" type="static">
      <phase duration="20.5000418497" state="GGrr"/>
      <phase duration="7.20227192811" state="yyrr"/>
      <phase duration="20.5000418497" state="rrGG"/>
      <phase duration="7.20227192811" state="rryy"/>
   </tlLogic>
   <tlLogic id="1000099788" offset="0" programID="0" type="static">
      <phase duration="28.4720014576" state="GGrr"/>
      <phase duration="2.30845937406" state="yyrr"/>
      <phase duration="28.4720014576" state="rrGG"/>
      <phase duration="2.30845937406" state="rryy"/>
   </tlLogic>
   <tlLogic id="1012326820" offset="0" programID="0" type="static">
      <phase duration="22.5955783593" state="G"/>
      <phase duration="9.64781925526" state="y"/>
   </tlLogic>
   <tlLogic id="1028832536" offset="0" programID="0" type="static"/>
   <tlLogic id="1037290808" offset="0" programID="0" type="static">
      <phase duration="9.80744309497" state="GGGrrrrrr"/>
      <phase duration="2.75850032239" state="yyyrrrrrr"/>
      <phase duration="9.80744309497" state="rrrGGGrrr"/>
      <phase duration="2.75850032239" state="rrryyyrrr"/>
      <phase duration="9.80744309497" state="rrrrrrGGG"/>
      <phase duration="2.75850032239" state="rrrrrryyy"/>
   </tlLogic>
   <tlLogic id="1037290863" offset="0" programID="0" type="static">
      <phase duration="14.6440169588" state="GGrr"/>
      <phase duration="9.95992173907" state="yyrr"/>
      <phase duration="14.6440169588" state="rrGG"/>
      <phase duration="9.95992173907" state="rryy"/>
   </tlLogic>
   <tlLogic id="1037290889" offset="0" programID="0" type="static">
      <phase duration="26.8313968457" state="GGrr"/>
      <phase duration="9.32716781158" state="yyrr"/>
      <phase duration="26.8313968457" state="rrGG"/>
      <phase duration="9.32716781158" state="rryy"/>
   </tlLogic>
   <tlLogic id="1040964328" offset="0" programID="0" type="static">
      <phase duration="19.2794445417" state="Gr"/>
      <phase duration="7.11190523327" state="yr"/>
      <phase duration="19.2794445417" state="rG"/>
      <phase duration="7.11190523327" state="ry"/>
   </tlLogic>
   <tlLogic id="1040964333" offset="0" programID="0" type="static">
      <phase duration="25.0784370462" state="Gr"/>
      <phase duration="3.78220059123" state="yr"/>
      <phase duration="25.0784370462" state="rG"/>
      <phase duration="3.78220059123" state="ry"/>
   </tlLogic>
   <tlLogic id="1045044692" offset="0" programID="0" type="static">
      <phase duration="8.9889984473" state="Gr"/>
      <phase duration="7.94324968731" state="yr"/>
      <phase duration="8.9889984473" state="rG"/>
      <phase duration="7.94324968731" state="ry"/>
   </tlLogic>
   <tlLogic id="1045044750" offset="0" programID="0" type="static">
      <phase duration="35.6838572246" state="Gr"/>
      <phase duration="2.66956770148" state="yr"/>
      <phase duration="35.6838572246" state="rG"/>
      <phase duration="2.66956770148" state="ry"/>
   </tlLogic>
   <tlLogic id="1045044796" offset="0" programID="0" type="static">
      <phase duration="39.500411625" state="Gr"/>
      <phase duration="3.3126007401" state="yr"/>
      <phase duration="39.500411625" state="rG"/>
      <phase duration="3.3126007401" state="ry"/>
   </tlLogic>
   <tlLogic id="1045044803" offset="0" programID="0" type="static">
      <phase duration="29.8014954912" state="Gr"/>
      <phase duration="2.00270520508" state="yr"/>
      <phase duration="29.8014954912" state="rG"/>
      <phase duration="2.00270520508" state="ry"/>
   </tlLogic>
   <tlLogic id="1045044863" offset="0" programID="0" type="static">
      <phase duration="25.6814700399" state="G"/>
      <phase duration="4.7412340928" state="y"/>
   </tlLogic>
   <tlLogic id="1109589987" offset="0" programID="0" type="static">
      <phase duration="8.27044192034" state="GGrr"/>
      <phase duration="5.04294382873" state="yyrr"/>
      <phase duration="8.27044192034" state="rrGG"/>
      <phase duration="5.04294382873" state="rryy"/>
   </tlLogic>
   <tlLogic id="1150667539" offset="0" programID="0" type="static">
      <phase duration="12.9782349536" state="G"/>
      <phase duration="9.15470563683" state="y"/>
   </tlLogic>
   <tlLogic id="1150667552" offset="0" programID="0" type="static">
      <phase duration="9.17045456155" state="Gr"/>
      <phase duration="5.66039689951" state="yr"/>
      <phase duration="9.17045456155" state="rG"/>
      <phase duration="5.66039689951" state="ry"/>
   </tlLogic>
   <tlLogic id="1150667560" offset="0" programID="0" type="static">
      <phase duration="3.09109207797" state="G"/>
      <phase duration="3.88270853612" state="y"/>
   </tlLogic>
   <tlLogic id="1150667568" offset="0" programID="0" type="static"/>
   <tlLogic id="1150667586" offset="0" programID="0" type="static">
      <phase duration="26.3287453204" state="G"/>
      <phase duration="2.13358369997" state="y"/>
   </tlLogic>
   <tlLogic id="1150667603" offset="0" programID="0" type="static">
      <phase duration="4.32981318753" state="Gr"/>
      <phase duration="7.22050181609" state="yr"/>
      <phase duration="4.32981318753" state="rG"/>
      <phase duration="7.22050181609" state="ry"/>
   </tlLogic>
   <tlLogic id="1150667622" offset="0" programID="0" type="static">
      <phase duration="9.14731048015" state="G"/>
      <phase duration="7.36639920813" state="y"/>
   </tlLogic>
   <tlLogic id="1156723834" offset="0" programID="0" type="static">
      <phase duration="27.3070607706" state="G"/>
      <phase duration="4.99705595688" state="y"/>
   </tlLogic>
   <tlLogic id="1156723839" offset="0" programID="0" type="static">
      <phase duration="16.79109032" state="Gr"/>
      <phase duration="9.0873283933" state="yr"/>
      <phase duration="16.79109032" state="rG"/>
      <phase duration="9.0873283933" state="ry"/>
   </tlLogic>
   <tlLogic id="1200892937" offset="0" programID="0" type="static">
      <phase duration="28.1667351775" state="G"/>
      <phase duration="2.7272695111" state="y"/>
   </tlLogic>
   <tlLogic id="1200892960" offset="0" programID="0" type="static">
      <phase duration="38.3053942741" state="Gr"/>
      <phase duration="9.95558220287" state="yr"/>
      <phase duration="38.3053942741" state="rG"/>
      <phase duration="9.95558220287" state="ry"/>
   </tlLogic>
   <tlLogic id="1201745377" offset="0" programID="0" type="static">
      <phase duration="4.39028414862" state="G"/>
      <phase duration="5.65557997585" state="y"/>
   </tlLogic>
   <tlLogic id="1201745399" offset="0" programID="0" type="static"/>
   <tlLogic id="1211136595" offset="0" programID="0" type="static">
      <phase duration="28.4353419311" state="G"/>
      <phase duration="6.64716091208" state="y"/>
   </tlLogic>
   <tlLogic id="1220020505" offset="0" programID="0" type="static">
      <phase duration="3.89292452425" state="G"/>
      <phase duration="5.3569736816" state="y"/>
   </tlLogic>
   <tlLogic id="1220020545" offset="0" programID="0" type="static">
      <phase duration="23.8854469194" state="GGrrr"/>
      <phase duration="3.01009528165" state="yyrrr"/>
      <phase duration="23.8854469194" state="rrGrr"/>
      <phase duration="3.01009528165" state="rryrr"/>
      <phase duration="23.8854469194" state="rrrGG"/>
      <phase duration="3.01009528165" state="rrryy"/>
   </tlLogic>
   <tlLogic id="1220020588" offset="0" programID="0" type="static">
      <phase duration="29.3749728833" state="GGrr"/>
      <phase duration="7.74194163648" state="yyrr"/>
      <phase duration="29.3749728833" state="rrGG"/>
      <phase duration="7.74194163648" state="rryy"/>
   </tlLogic>
   <tlLogic id="1220020630" offset="0" programID="0" type="static">
      <phase duration="26.7490782338" state="Gr"/>
      <phase duration="9.32355990243" state="yr"/>
      <phase duration="26.7490782338" state="rG"/>
      <phase duration="9.32355990243" state="ry"/>
   </tlLogic>
   <tlLogic id="1220020673" offset="0" programID="0" type="static">
      <phase duration="22.6395509187" state="GGGrrrrrr"/>
      <phase duration="9.26048463039" state="yyyrrrrrr"/>
      <phase duration="22.6395509187" state="rrrGGGrrr"/>
      <phase duration="9.26048463039" state="rrryyyrrr"/>
      <phase duration="22.6395509187" state="rrrrrrGGG"/>
      <phase duration="9.26048463039" state="rrrrrryyy"/>
   </tlLogic>
   <tlLogic id="1229522552" offset="0" programID="0" type="static">
      <phase duration="19.5897964397" state="G"/>
      <phase duration="3.81528585523" state="y"/>
   </tlLogic>
   <tlLogic id="1229522554" offset="0" programID="0" type="static">
      <phase duration="36.9455501463" state="G"/>
      <phase duration="7.1559328637" state="y"/>
   </tlLogic>
   <tlLogic id="1252285079" offset="0" programID="0" type="static">
      <phase duration="8.08566658205" state="Gr"/>
      <phase duration="2.51671789827" state="yr"/>
      <phase duration="8.08566658205" state="rG"/>
      <phase duration="2.51671789827" state="ry"/>
   </tlLogic>
   <tlLogic id="1252285087" offset="0" programID="0" type="static"/>
   <tlLogic id="1252285093" offset="0" programID="0" type="static">
      <phase duration="21.3820421504" state="Gr"/>
      <phase duration="4.78080082988" state="yr"/>
      <phase duration="21.3820421504" state="rG"/>
      <phase duration="4.78080082988" state="ry"/>
   </tlLogic>
   <tlLogic id="1252285107" offset="0" programID="0" type="static">
      <phase duration="5.90831175053" state="G"/>
      <phase duration="6.37706422762" state="y"/>
   </tlLogic>
   <tlLogic id="1252285133" offset="0" programID="0" type="static">
      <phase duration="8.21228370976" state="Gr"/>
      <phase duration="5.92120723424" state="yr"/>
      <phase duration="8.21228370976" state="rG"/>
      <phase duration="5.92120723424" state="ry"/>
   </tlLogic>
   <tlLogic id="1252285140" offset="0" programID="0" type="static">
      <phase duration="11.998885749" state="Gr"/>
      <phase duration="7.41054597854" state="yr"/>
      <phase duration="11.998885749" state="rG"/>
      <phase duration="7.41054597854" state="ry"/>
   </tlLogic>
   <tlLogic id="1258258237" offset="0" programID="0" type="static">
      <phase duration="22.903017125" state="GGr"/>
      <phase duration="7.25325168152" state="yyr"/>
      <phase duration="22.903017125" state="rrG"/>
      <phase duration="7.25325168152" state="rry"/>
   </tlLogic>
   <tlLogic id="1271504743" offset="0" programID="0" type="static">
      <phase duration="23.3892772442" state="G"/>
      <phase duration="6.57172131068" state="y"/>
   </tlLogic>
   <tlLogic id="1271504755" offset="0" programID="0" type="static">
      <phase duration="19.1288997571" state="GGrrr"/>
      <phase duration="1.81389649137" state="yyrrr"/>
      <phase duration="19.1288997571" state="rrGrr"/>
      <phase duration="1.81389649137" state="rryrr"/>
      <phase duration="19.1288997571" state="rrrGG"/>
      <phase duration="1.81389649137" state="rrryy"/>
   </tlLogic>
   <tlLogic id="1271504757" offset="0" programID="0" type="static">
      <phase duration="25.420600039" state="GGrrr"/>
      <phase duration="7.44749545926" state="yyrrr"/>
      <phase duration="25.420600039" state="rrGrr"/>
      <phase duration="7.44749545926" state="rryrr"/>
      <phase duration="25.420600039" state="rrrGG"/>
      <phase duration="7.44749545926" state="rrryy"/>
   </tlLogic>
   <tlLogic id="1271504758" offset="0" programID="0" type="static">
      <phase duration="22.1506584646" state="G"/>
      <phase duration="8.79459944828" state="y"/>
   </tlLogic>
   <tlLogic id="1271504763" offset="0" programID="0" type="static">
      <phase duration="10.000156147" state="G"/>
      <phase duration="6.07445186182" state="y"/>
   </tlLogic>
   <tlLogic id="1271504768" offset="0" programID="0" type="static">
      <phase duration="18.2476391736" state="Gr"/>
      <phase duration="9.84352501764" state="yr"/>
      <phase duration="18.2476391736" state="rG"/>
      <phase duration="9.84352501764" state="ry"/>
   </tlLogic>
   <tlLogic id="1271504774" offset="0" programID="0" type="static">
      <phase duration="20.6974925854" state="G"/>
      <phase duration="7.8580414906" state="y"/>
   </tlLogic>
   <tlLogic id="1271504778" offset="0" programID="0" type="static">
      <phase duration="34.1802730497" state="G"/>
      <phase duration="5.8381043473" state="y"/>
   </tlLogic>
   <tlLogic id="1271504781" offset="0" programID="0" type="static">
      <phase duration="27.7714493404" state="GGrrr"/>
      <phase duration="6.8377195934" state="yyrrr"/>
      <phase duration="27.7714493404" state="rrGrr"/>
      <phase duration="6.8377195934" state="rryrr"/>
      <phase duration="27.7714493404" state="rrrGG"/>
      <phase duration="6.8377195934" state="rrryy"/>
   </tlLogic>
   <tlLogic id="1271504783" offset="0" programID="0" type="static">
      <phase duration="9.25384770948" state="Gr"/>
      <phase duration="8.82497264265" state="yr"/>
      <phase duration="9.25384770948" state="rG"/>
      <phase duration="8.82497264265" state="ry"/>
   </tlLogic>
   <tlLogic id="1271504801" offset="0" programID="0" type="static">
      <phase duration="6.88321039186" state="G"/>
      <phase duration="8.83995166354" state="y"/>
   </tlLogic>
   <tlLogic id="1271504803" offset="0" programID="0" type="static">
      <phase duration="16.6978311574" state="G"/>
      <phase duration="7.8379047762" state="y"/>
   </tlLogic>
   <tlLogic id="1271504814" offset="0" programID="0" type="static">
      <phase duration="9.25689943121" state="G"/>
      <phase duration="6.68022765078" state="y"/>
   </tlLogic>
   <tlLogic id="1271504815" offset="0" programID="0" type="static">
      <phase duration="9.44858458383" state="Gr"/>
      <phase duration="2.19822708653" state="yr"/>
      <phase duration="9.44858458383" state="rG"/>
      <phase duration="2.19822708653" state="ry"/>
   </tlLogic>
   <tlLogic id="1271504819" offset="0" programID="0" type="static">
      <phase duration="15.6291834387" state="Gr"/>
      <phase duration="3.03368174225" state="yr"/>
      <phase duration="15.6291834387" state="rG"/>
      <phase duration="3.03368174225" state="ry"/>
   </tlLogic>
   <tlLogic id="1271504822" offset="0" programID="0" type="static">
      <phase duration="16.0625829636" state="G"/>
      <phase duration="4.58828883078" state="y"/>
   </tlLogic>
   <tlLogic id="1271504827" offset="0" programID="0" type="static">
      <phase duration="10.0981881358" state="Gr"/>
      <phase duration="6.74367758194" state="yr"/>
      <phase duration="10.0981881358" state="rG"/>
      <phase duration="6.74367758194" state="ry"/>
   </tlLogic>
   <tlLogic id="1271504829" offset="0" programID="0" type="static">
      <phase duration="12.9826747158" state="Gr"/>
      <phase duration="3.88129038154" state="yr"/>
      <phase duration="12.9826747158" state="rG"/>
      <phase duration="3.88129038154" state="ry"/>
   </tlLogic>
   <tlLogic id="1271504830" offset="0" programID="0" type="static">
      <phase duration="9.40984285114" state="GGrrr"/>
      <phase duration="4.83712746315" state="yyrrr"/>
      <phase duration="9.40984285114" state="rrGrr"/>
      <phase duration="4.83712746315" state="rryrr"/>
      <phase duration="9.40984285114" state="rrrGG"/>
      <phase duration="4.83712746315" state="rrryy"/>
   </tlLogic>
   <tlLogic id="1271504831" offset="0" programID="0" type="static">
      <phase duration="18.4502057838" state="G"/>
      <phase duration="3.58906825983" state="y"/>
   </tlLogic>
   <tlLogic id="1271504834" offset="0" programID="0" type="static">
      <phase duration="2.18850759417" state="G"/>
      <phase duration="2.90930305635" state="y"/>
   </tlLogic>
   <tlLogic id="1271504836" offset="0" programID="0" type="static">
      <phase duration="20.6051583836" state="G"/>
      <phase duration="7.78458978633" state="y"/>
   </tlLogic>
   <tlLogic id="1271504838" offset="0" programID="0" type="static">
      <phase duration="14.24363701" state="GGrrr"/>
      <phase duration="9.7305716022" state="yyrrr"/>
      <phase duration="14.24363701" state="rrGGr"/>
      <phase duration="9.7305716022" state="rryyr"/>
      <phase duration="14.24363701" state="rrrrG"/>
      <phase duration="9.7305716022" state="rrrry"/>
   </tlLogic>
   <tlLogic id="1271504841" offset="0" programID="0" type="static">
      <phase duration="33.800347785" state="G"/>
      <phase duration="5.69339120755" state="y"/>
   </tlLogic>
   <tlLogic id="1271504842" offset="0" programID="0" type="static">
      <phase duration="22.0300063681" state="G"/>
      <phase duration="4.09468746237" state="y"/>
   </tlLogic>
   <tlLogic id="1271504849" offset="0" programID="0" type="static">
      <phase duration="16.9012358373" state="GGrrr"/>
      <phase duration="4.1235433769" state="yyrrr"/>
      <phase duration="16.9012358373" state="rrGrr"/>
      <phase duration="4.1235433769" state="rryrr"/>
      <phase duration="16.9012358373" state="rrrGG"/>
      <phase duration="4.1235433769" state="rrryy"/>
   </tlLogic>
   <tlLogic id="1271504850" offset="0" programID="0" type="static">
      <phase duration="13.3821939039" state="Gr"/>
      <phase duration="6.04450315837" state="yr"/>
      <phase duration="13.3821939039" state="rG"/>
      <phase duration="6.04450315837" state="ry"/>
   </tlLogic>
   <tlLogic id="1271504852" offset="0" programID="0" type="static">
      <phase duration="24.4872567409" state="G"/>
      <phase duration="4.23867869108" state="y"/>
   </tlLogic>
   <tlLogic id="1271504861" offset="0" programID="0" type="static">
      <phase duration="30.6000334974" state="G"/>
      <phase duration="1.1507994511" state="y"/>
   </tlLogic>
   <tlLogic id="1271504863" offset="0" programID="0" type="static">
      <phase duration="34.1809758661" state="G"/>
      <phase duration="2.47999883198" state="y"/>
   </tlLogic>
   <tlLogic id="1271504872" offset="0" programID="0" type="static">
      <phase duration="10.056237006" state="G"/>
      <phase duration="6.09785421498" state="y"/>
   </tlLogic>
   <tlLogic id="1271504873" offset="0" programID="0" type="static">
      <phase duration="19.8818566045" state="GGrrr"/>
      <phase duration="9.70288603998" state="yyrrr"/>
      <phase duration="19.8818566045" state="rrGrr"/>
      <phase duration="9.70288603998" state="rryrr"/>
      <phase duration="19.8818566045" state="rrrGG"/>
      <phase duration="9.70288603998" state="rrryy"/>
   </tlLogic>
   <tlLogic id="1271504875" offset="0" programID="0" type="static">
      <phase duration="23.2516372297" state="G"/>
      <phase duration="8.57771971368" state="y"/>
   </tlLogic>
   <tlLogic id="1271504876" offset="0" programID="0" type="static">
      <phase duration="13.4775819108" state="G"/>
      <phase duration="4.26528358136" state="y"/>
   </tlLogic>
   <tlLogic id="1271504878" offset="0" programID="0" type="static">
      <phase duration="37.7243832221" state="G"/>
      <phase duration="1.6264263057" state="y"/>
   </tlLogic>
   <tlLogic id="1271504887" offset="0" programID="0" type="static">
      <phase duration="6.8945325378" state="G"/>
      <phase duration="8.94241055067" state="y"/>
   </tlLogic>
   <tlLogic id="1271504888" offset="0" programID="0" type="static">
      <phase duration="39.4865584711" state="G"/>
      <phase duration="3.82273713041" state="y"/>
   </tlLogic>
   <tlLogic id="1271504893" offset="0" programID="0" type="static">
      <phase duration="14.4357470076" state="GGrrr"/>
      <phase duration="5.57000726641" state="yyrrr"/>
      <phase duration="14.4357470076" state="rrGrr"/>
      <phase duration="5.57000726641" state="rryrr"/>
      <phase duration="14.4357470076" state="rrrGG"/>
      <phase duration="5.57000726641" state="rrryy"/>
   </tlLogic>
   <tlLogic id="1271504894" offset="0" programID="0" type="static">
      <phase duration="16.0537885392" state="G"/>
      <phase duration="7.14223073233" state="y"/>
   </tlLogic>
   <tlLogic id="1271504899" offset="0" programID="0" type="static">
      <phase duration="24.0510278147" state="G"/>
      <phase duration="9.99929241375" state="y"/>
   </tlLogic>
   <tlLogic id="1271504902" offset="0" programID="0" type="static">
      <phase duration="29.4179253422" state="Gr"/>
      <phase duration="3.20525583628" state="yr"/>
      <phase duration="29.4179253422" state="rG"/>
      <phase duration="3.20525583628" state="ry"/>
   </tlLogic>
   <tlLogic id="1271504904" offset="0" programID="0" type="static">
      <phase duration="20.4589653236" state="Grr"/>
      <phase duration="5.56080550121" state="yrr"/>
      <phase duration="20.4589653236" state="rGG"/>
      <phase duration="5.56080550121" state="ryy"/>
   </tlLogic>
   <tlLogic id="1271504905" offset="0" programID="0" type="static">
      <phase duration="21.5406580483" state="G"/>
      <phase duration="7.41220370995" state="y"/>
   </tlLogic>
   <tlLogic id="1271504907" offset="0" programID="0" type="static">
      <phase duration="26.3094005772" state="G"/>
      <phase duration="6.35576159633" state="y"/>
   </tlLogic>
   <tlLogic id="1271504908" offset="0" programID="0" type="static">
      <phase duration="28.3009027588" state="G"/>
      <phase duration="9.17730705467" state="y"/>
   </tlLogic>
   <tlLogic id="1271504910" offset="0" programID="0" type="static">
      <phase duration="4.58656885509" state="Gr"/>
      <phase duration="8.58377884381" state="yr"/>
      <phase duration="4.58656885509" state="rG"/>
      <phase duration="8.58377884381" state="ry"/>
   </tlLogic>
   <tlLogic id="1299369678" offset="0" programID="0" type="static">
      <phase duration="34.9826454214" state="G"/>
      <phase duration="7.09553856561" state="y"/>
   </tlLogic>
   <tlLogic id="1299369684" offset="0" programID="0" type="static">
      <phase duration="25.7829274494" state="G"/>
      <phase duration="7.94198871658" state="y"/>
   </tlLogic>
   <tlLogic id="1299369686" offset="0" programID="0" type="static">
      <phase duration="25.5692953447" state="G"/>
      <phase duration="8.47265267409" state="y"/>
   </tlLogic>
   <tlLogic id="1299369691" offset="0" programID="0" type="static">
      <phase duration="10.2617389317" state="Gr"/>
      <phase duration="9.50654858989" state="yr"/>
      <phase duration="10.2617389317" state="rG"/>
      <phase duration="9.50654858989" state="ry"/>
   </tlLogic>
   <tlLogic id="1299369699" offset="0" programID="0" type="static">
      <phase duration="11.0363257858" state="G"/>
      <phase duration="4.33531148623" state="y"/>
   </tlLogic>
   <tlLogic id="1312440715" offset="0" programID="0" type="static">
      <phase duration="17.9089127909" state="Gr"/>
      <phase duration="7.56841320643" state="yr"/>
      <phase duration="17.9089127909" state="rG"/>
      <phase duration="7.56841320643" state="ry"/>
   </tlLogic>
   <tlLogic id="1312812204" offset="0" programID="0" type="static">
      <phase duration="32.2995200342" state="G"/>
      <phase duration="7.05921850811" state="y"/>
   </tlLogic>
   <tlLogic id="1353566368" offset="0" programID="0" type="static">
      <phase duration="27.7333560204" state="G"/>
      <phase duration="5.45827164712" state="y"/>
   </tlLogic>
   <tlLogic id="1353566371" offset="0" programID="0" type="static">
      <phase duration="3.7717116058" state="G"/>
      <phase duration="4.62806904719" state="y"/>
   </tlLogic>
   <tlLogic id="1360932319" offset="0" programID="0" type="static"/>
   <tlLogic id="1366801194" offset="0" programID="0" type="static"/>
   <tlLogic id="1366801200" offset="0" programID="0" type="static">
      <phase duration="21.6946148646" state="Gr"/>
      <phase duration="6.05814626256" state="yr"/>
      <phase duration="21.6946148646" state="rG"/>
      <phase duration="6.05814626256" state="ry"/>
   </tlLogic>
   <tlLogic id="1366801204" offset="0" programID="0" type="static">
      <phase duration="17.7861553283" state="G"/>
      <phase duration="5.36122618911" state="y"/>
   </tlLogic>
   <tlLogic id="1366801221" offset="0" programID="0" type="static">
      <phase duration="34.8366711812" state="Gr"/>
      <phase duration="7.37278448245" state="yr"/>
      <phase duration="34.8366711812" state="rG"/>
      <phase duration="7.37278448245" state="ry"/>
   </tlLogic>
   <tlLogic id="1366801262" offset="0" programID="0" type="static">
      <phase duration="35.3514913393" state="G"/>
      <phase duration="2.69369058959" state="y"/>
   </tlLogic>
   <tlLogic id="1492679678" offset="0" programID="0" type="static">
      <phase duration="14.721439371" state="Gr"/>
      <phase duration="2.26507804964" state="yr"/>
      <phase duration="14.721439371" state="rG"/>
      <phase duration="2.26507804964" state="ry"/>
   </tlLogic>
   <tlLogic id="1492679714" offset="0" programID="0" type="static">
      <phase duration="18.8389664272" state="Gr"/>
      <phase duration="3.01652308503" state="yr"/>
      <phase duration="18.8389664272" state="rG"/>
      <phase duration="3.01652308503" state="ry"/>
   </tlLogic>
   <tlLogic id="1492679718" offset="0" programID="0" type="static"/>
   <tlLogic id="1492679726" offset="0" programID="0" type="static">
      <phase duration="2.69949063593" state="G"/>
      <phase duration="4.29297505185" state="y"/>
   </tlLogic>
   <tlLogic id="1492679731" offset="0" programID="0" type="static">
      <phase duration="20.1554186628" state="Gr"/>
      <phase duration="4.84179619501" state="yr"/>
      <phase duration="20.1554186628" state="rG"/>
      <phase duration="4.84179619501" state="ry"/>
   </tlLogic>
   <tlLogic id="1492679733" offset="0" programID="0" type="static">
      <phase duration="5.13476485364" state="Gr"/>
      <phase duration="5.41998271808" state="yr"/>
      <phase duration="5.13476485364" state="rG"/>
      <phase duration="5.41998271808" state="ry"/>
   </tlLogic>
   <tlLogic id="1492679740" offset="0" programID="0" type="static">
      <phase duration="17.3711838678" state="G"/>
      <phase duration="3.14821817502" state="y"/>
   </tlLogic>
   <tlLogic id="1492679747" offset="0" programID="0" type="static">
      <phase duration="22.9765628853" state="Gr"/>
      <phase duration="9.41203145521" state="yr"/>
      <phase duration="22.9765628853" state="rG"/>
      <phase duration="9.41203145521" state="ry"/>
   </tlLogic>
   <tlLogic id="1492679749" offset="0" programID="0" type="static">
      <phase duration="17.4632472889" state="GGrrr"/>
      <phase duration="2.83469101405" state="yyrrr"/>
      <phase duration="17.4632472889" state="rrGGr"/>
      <phase duration="2.83469101405" state="rryyr"/>
      <phase duration="17.4632472889" state="rrrrG"/>
      <phase duration="2.83469101405" state="rrrry"/>
   </tlLogic>
   <tlLogic id="1492679753" offset="0" programID="0" type="static">
      <phase duration="22.721290929" state="G"/>
      <phase duration="9.46165729802" state="y"/>
   </tlLogic>
   <tlLogic id="1492729095" offset="0" programID="0" type="static">
      <phase duration="38.6746852982" state="G"/>
      <phase duration="8.02600748843" state="y"/>
   </tlLogic>
   <tlLogic id="1492729111" offset="0" programID="0" type="static">
      <phase duration="36.0728743265" state="G"/>
      <phase duration="4.76005516848" state="y"/>
   </tlLogic>
   <tlLogic id="1492802033" offset="0" programID="0" type="static">
      <phase duration="29.5685224345" state="GGrrr"/>
      <phase duration="3.02164551317" state="yyrrr"/>
      <phase duration="29.5685224345" state="rrGrr"/>
      <phase duration="3.02164551317" state="rryrr"/>
      <phase duration="29.5685224345" state="rrrGG"/>
      <phase duration="3.02164551317" state="rrryy"/>
   </tlLogic>
   <tlLogic id="1492802034" offset="0" programID="0" type="static">
      <phase duration="2.80367063479" state="G"/>
      <phase duration="9.83788001988" state="y"/>
   </tlLogic>