<?xml version="1.0" ?>
<tlLogics>
   <tlLogic id="1000099475" offset="0" programID="0" type="static">
      <phase duration="14.9314596246" state="GG"/>
      <phase duration="9.59663919829" state="yy"/>
   </tlLogic>
   <tlLogic id="1000099551" offset="0" programID="0" type="static">
      <phase duration="11.9266149321" state="G"/>
      <phase duration="8.71795085204" state="y"/>
   </tlLogic>
   <tlLogic id="1000099607" offset="0" programID="0" type="static">
      <phase duration="11.2269631915" state="GGr"/>
      <phase duration="5.02877874728" state="yyr"/>
      <phase duration="11.2269631915" state="rrG"/>
      <phase duration="5.02877874728" state="rry"/>
   </tlLogic>
   <tlLogic id="1000099650" offset="0" programID="0" type="static">
      <phase duration="33.7191495967" state="G"/>
      <phase duration="6.9398715814" state="y"/>
   </tlLogic>
   <tlLogic id="1000099651" offset="0" programID="0" type="static">
      <phase duration="18.2964995727" state="GGrrrr"/>
      <phase duration="8.02062706382" state="yyrrrr"/>
      <phase duration="18.2964995727" state="rrGGrr"/>
      <phase duration="8.02062706382" state="rryyrr"/>
      <phase duration="18.2964995727" state="rrrrGG"/>
      <phase duration="8.02062706382" state="rrrryy"/>
   </tlLogic>
   <tlLogic id="1012321573" offset="0" programID="0" type="static">
      <phase duration="39.7234713048" state="Gr"/>
      <phase duration="8.25520518905" state="yr"/>
      <phase duration="39.7234713048" state="rG"/>
      <phase duration="8.25520518905" state="ry"/>
   </tlLogic>
   <tlLogic id="1012321580" offset="0" programID="0" type="static">
      <phase duration="16.9998580822" state="Gr"/>
      <phase duration="9.65426551327" state="yr"/>
      <phase duration="16.9998580822" state="rG"/>
      <phase duration="9.65426551327" state="ry"/>
   </tlLogic>
   <tlLogic id="1028832536" offset="0" programID="0" type="static"/>
   <tlLogic id="1045044692" offset="0" programID="0" type="static">
      <phase duration="11.2607570793" state="Gr"/>
      <phase duration="5.666101132" state="yr"/>
      <phase duration="11.2607570793" state="rG"/>
      <phase duration="5.666101132" state="ry"/>
   </tlLogic>
   <tlLogic id="1045044750" offset="0" programID="0" type="static">
      <phase duration="2.04327731617" state="Gr"/>
      <phase duration="8.07671336641" state="yr"/>
      <phase duration="2.04327731617" state="rG"/>
      <phase duration="8.07671336641" state="ry"/>
   </tlLogic>
   <tlLogic id="1125127500" offset="0" programID="0" type="static">
      <phase duration="29.1997424684" state="GG"/>
      <phase duration="7.80535022236" state="yy"/>
   </tlLogic>
   <tlLogic id="1150667546" offset="0" programID="0" type="static">
      <phase duration="13.2758189645" state="G"/>
      <phase duration="6.83328898858" state="y"/>
   </tlLogic>
   <tlLogic id="1150667552" offset="0" programID="0" type="static">
      <phase duration="35.6604941863" state="Gr"/>
      <phase duration="3.1521642319" state="yr"/>
      <phase duration="35.6604941863" state="rG"/>
      <phase duration="3.1521642319" state="ry"/>
   </tlLogic>
   <tlLogic id="1150667558" offset="0" programID="0" type="static">
      <phase duration="19.407207425" state="Gr"/>
      <phase duration="3.57877968465" state="yr"/>
      <phase duration="19.407207425" state="rG"/>
      <phase duration="3.57877968465" state="ry"/>
   </tlLogic>
   <tlLogic id="1150667560" offset="0" programID="0" type="static">
      <phase duration="21.1400792066" state="G"/>
      <phase duration="8.03071326943" state="y"/>
   </tlLogic>
   <tlLogic id="1150667568" offset="0" programID="0" type="static"/>
   <tlLogic id="1150667586" offset="0" programID="0" type="static">
      <phase duration="12.6235125333" state="G"/>
      <phase duration="3.6628237568" state="y"/>
   </tlLogic>
   <tlLogic id="1150667604" offset="0" programID="0" type="static">
      <phase duration="32.8825244137" state="Gr"/>
      <phase duration="9.18689954262" state="yr"/>
      <phase duration="32.8825244137" state="rG"/>
      <phase duration="9.18689954262" state="ry"/>
   </tlLogic>
   <tlLogic id="1150667608" offset="0" programID="0" type="static">
      <phase duration="30.7226721698" state="Gr"/>
      <phase duration="4.76243328385" state="yr"/>
      <phase duration="30.7226721698" state="rG"/>
      <phase duration="4.76243328385" state="ry"/>
   </tlLogic>
   <tlLogic id="1150667618" offset="0" programID="0" type="static">
      <phase duration="34.9337611527" state="G"/>
      <phase duration="2.7951635" state="y"/>
   </tlLogic>
   <tlLogic id="1156723779" offset="0" programID="0" type="static">
      <phase duration="19.6629925283" state="GGrrr"/>
      <phase duration="3.96612118757" state="yyrrr"/>
      <phase duration="19.6629925283" state="rrGrr"/>
      <phase duration="3.96612118757" state="rryrr"/>
      <phase duration="19.6629925283" state="rrrGG"/>
      <phase duration="3.96612118757" state="rrryy"/>
   </tlLogic>
   <tlLogic id="1156723834" offset="0" programID="0" type="static">
      <phase duration="33.2802004947" state="G"/>
      <phase duration="8.40314377471" state="y"/>
   </tlLogic>
   <tlLogic id="1200892960" offset="0" programID="0" type="static">
      <phase duration="31.2141558987" state="Gr"/>
      <phase duration="7.85203735009" state="yr"/>
      <phase duration="31.2141558987" state="rG"/>
      <phase duration="7.85203735009" state="ry"/>
   </tlLogic>
   <tlLogic id="1201745377" offset="0" programID="0" type="static">
      <phase duration="4.63121416614" state="G"/>
      <phase duration="7.58401568715" state="y"/>
   </tlLogic>
   <tlLogic id="1211136497" offset="0" programID="0" type="static">
      <phase duration="9.61153926479" state="GGrr"/>
      <phase duration="9.13483864654" state="yyrr"/>
      <phase duration="9.61153926479" state="rrGG"/>
      <phase duration="9.13483864654" state="rryy"/>
   </tlLogic>
   <tlLogic id="1211136595" offset="0" programID="0" type="static">
      <phase duration="11.4898326661" state="G"/>
      <phase duration="6.32737905996" state="y"/>
   </tlLogic>
   <tlLogic id="1211136870" offset="0" programID="0" type="static">
      <phase duration="18.5399690068" state="GGrr"/>
      <phase duration="9.47047222099" state="yyrr"/>
      <phase duration="18.5399690068" state="rrGG"/>
      <phase duration="9.47047222099" state="rryy"/>
   </tlLogic>
   <tlLogic id="1220020505" offset="0" programID="0" type="static">
      <phase duration="29.9775217553" state="G"/>
      <phase duration="8.95485730745" state="y"/>
   </tlLogic>
   <tlLogic id="1220020592" offset="0" programID="0" type="static">
      <phase duration="39.1353583307" state="Gr"/>
      <phase duration="6.63261780802" state="yr"/>
      <phase duration="39.1353583307" state="rG"/>
      <phase duration="6.63261780802" state="ry"/>
   </tlLogic>
   <tlLogic id="1220020607" offset="0" programID="0" type="static">
      <phase duration="7.09820926674" state="GGrr"/>
      <phase duration="9.76215248012" state="yyrr"/>
      <phase duration="7.09820926674" state="rrGG"/>
      <phase duration="9.76215248012" state="rryy"/>
   </tlLogic>
   <tlLogic id="1220020656" offset="0" programID="0" type="static">
      <phase duration="37.4527360968" state="GGrr"/>
      <phase duration="9.35733149868" state="yyrr"/>
      <phase duration="37.4527360968" state="rrGG"/>
      <phase duration="9.35733149868" state="rryy"/>
   </tlLogic>
   <tlLogic id="1220020673" offset="0" programID="0" type="static">
      <phase duration="34.3968037497" state="GGGrrrrrr"/>
      <phase duration="3.84385200669" state="yyyrrrrrr"/>
      <phase duration="34.3968037497" state="rrrGGGrrr"/>
      <phase duration="3.84385200669" state="rrryyyrrr"/>
      <phase duration="34.3968037497" state="rrrrrrGGG"/>
      <phase duration="3.84385200669" state="rrrrrryyy"/>
   </tlLogic>
   <tlLogic id="1229522462" offset="0" programID="0" type="static">
      <phase duration="9.32053700732" state="G"/>
      <phase duration="4.26172310643" state="y"/>
   </tlLogic>
   <tlLogic id="1229522502" offset="0" programID="0" type="static">
      <phase duration="17.9072353403" state="Gr"/>
      <phase duration="5.86387611988" state="yr"/>
      <phase duration="17.9072353403" state="rG"/>
      <phase duration="5.86387611988" state="ry"/>
   </tlLogic>
   <tlLogic id="1229522509" offset="0" programID="0" type="static">
      <phase duration="17.2204196249" state="G"/>
      <phase duration="7.30503612775" state="y"/>
   </tlLogic>
   <tlLogic id="1229522554" offset="0" programID="0" type="static">
      <phase duration="4.07996692718" state="G"/>
      <phase duration="2.01728060823" state="y"/>
   </tlLogic>
   <tlLogic id="1252285082" offset="0" programID="0" type="static">
      <phase duration="31.9532434114" state="G"/>
      <phase duration="8.80841831182" state="y"/>
   </tlLogic>
   <tlLogic id="1252285085" offset="0" programID="0" type="static">
      <phase duration="21.8057527162" state="Gr"/>
      <phase duration="8.4257367982" state="yr"/>
      <phase duration="21.8057527162" state="rG"/>
      <phase duration="8.4257367982" state="ry"/>
   </tlLogic>
   <tlLogic id="1252285092" offset="0" programID="0" type="static">
      <phase duration="26.4982264194" state="G"/>
      <phase duration="9.37564100943" state="y"/>
   </tlLogic>
   <tlLogic id="1252285137" offset="0" programID="0" type="static">
      <phase duration="26.494120349" state="Gr"/>
      <phase duration="8.62946641264" state="yr"/>
      <phase duration="26.494120349" state="rG"/>
      <phase duration="8.62946641264" state="ry"/>
   </tlLogic>
   <tlLogic id="1252285138" offset="0" programID="0" type="static">
      <phase duration="38.9539946945" state="G"/>
      <phase duration="5.32679407851" state="y"/>
   </tlLogic>
   <tlLogic id="1258258237" offset="0" programID="0" type="static">
      <phase duration="11.5410268877" state="GGr"/>
      <phase duration="3.36728411886" state="yyr"/>
      <phase duration="11.5410268877" state="rrG"/>
      <phase duration="3.36728411886" state="rry"/>
   </tlLogic>
   <tlLogic id="1271504747" offset="0" programID="0" type="static">
      <phase duration="33.9718978426" state="Gr"/>
      <phase duration="8.83254495744" state="yr"/>
      <phase duration="33.9718978426" state="rG"/>
      <phase duration="8.83254495744" state="ry"/>
   </tlLogic>
   <tlLogic id="1271504748" offset="0" programID="0" type="static">
      <phase duration="37.6944423376" state="Gr"/>
      <phase duration="4.90815321952" state="yr"/>
      <phase duration="37.6944423376" state="rG"/>
      <phase duration="4.90815321952" state="ry"/>
   </tlLogic>
   <tlLogic id="1271504750" offset="0" programID="0" type="static">
      <phase duration="20.2197573247" state="G"/>
      <phase duration="8.93557801726" state="y"/>
   </tlLogic>
   <tlLogic id="1271504755" offset="0" programID="0" type="static">
      <phase duration="7.23815360103" state="GGrrr"/>
      <phase duration="8.97020545542" state="yyrrr"/>
      <phase duration="7.23815360103" state="rrGrr"/>
      <phase duration="8.97020545542" state="rryrr"/>
      <phase duration="7.23815360103" state="rrrGG"/>
      <phase duration="8.97020545542" state="rrryy"/>
   </tlLogic>
   <tlLogic id="1271504756" offset="0" programID="0" type="static">
      <phase duration="4.44513994911" state="Gr"/>
      <phase duration="1.89715472354" state="yr"/>
      <phase duration="4.44513994911" state="rG"/>
      <phase duration="1.89715472354" state="ry"/>
   </tlLogic>
   <tlLogic id="1271504763" offset="0" programID="0" type="static">
      <phase duration="11.7855224653" state="G"/>
      <phase duration="6.33305440192" state="y"/>
   </tlLogic>
   <tlLogic id="1271504768" offset="0" programID="0" type="static">
      <phase duration="37.7394444917" state="Gr"/>
      <phase duration="5.41686791263" state="yr"/>
      <phase duration="37.7394444917" state="rG"/>
      <phase duration="5.41686791263" state="ry"/>
   </tlLogic>
   <tlLogic id="1271504770" offset="0" programID="0" type="static">
      <phase duration="14.6369928915" state="Gr"/>
      <phase duration="4.38755122681" state="yr"/>
      <phase duration="14.6369928915" state="rG"/>
      <phase duration="4.38755122681" state="ry"/>
   </tlLogic>
   <tlLogic id="1271504774" offset="0" programID="0" type="static">
      <phase duration="20.4937865322" state="G"/>
      <phase duration="7.50015040102" state="y"/>
   </tlLogic>
   <tlLogic id="1271504781" offset="0" programID="0" type="static">
      <phase duration="21.2093899412" state="GGrrr"/>
      <phase duration="2.77172081386" state="yyrrr"/>
      <phase duration="21.2093899412" state="rrGrr"/>
      <phase duration="2.77172081386" state="rryrr"/>
      <phase duration="21.2093899412" state="rrrGG"/>
      <phase duration="2.77172081386" state="rrryy"/>
   </tlLogic>
   <tlLogic id="1271504783" offset="0" programID="0" type="static">
      <phase duration="22.2425470216" state="Gr"/>
      <phase duration="5.27214913581" state="yr"/>
      <phase duration="22.2425470216" state="rG"/>
      <phase duration="5.27214913581" state="ry"/>
   </tlLogic>
   <tlLogic id="1271504795" offset="0" programID="0" type="static">
      <phase duration="13.9042061316" state="G"/>
      <phase duration="7.42614587098" state="y"/>
   </tlLogic>
   <tlLogic id="1271504814" offset="0" programID="0" type="static">
      <phase duration="36.4018291216" state="G"/>
      <phase duration="6.49224470837" state="y"/>
   </tlLogic>
   <tlLogic id="1271504815" offset="0" programID="0" type="static">
      <phase duration="15.9921484281" state="Gr"/>
      <phase duration="9.4968447036" state="yr"/>
      <phase duration="15.9921484281" state="rG"/>
      <phase duration="9.4968447036" state="ry"/>
   </tlLogic>
   <tlLogic id="1271504822" offset="0" programID="0" type="static">
      <phase duration="14.200675052" state="G"/>
      <phase duration="7.29224222222" state="y"/>
   </tlLogic>
   <tlLogic id="1271504824" offset="0" programID="0" type="static">
      <phase duration="13.8141394634" state="G"/>
      <phase duration="3.76240806097" state="y"/>
   </tlLogic>
   <tlLogic id="1271504827" offset="0" programID="0" type="static">
      <phase duration="4.97171703982" state="Gr"/>
      <phase duration="4.45722887232" state="yr"/>
      <phase duration="4.97171703982" state="rG"/>
      <phase duration="4.45722887232" state="ry"/>
   </tlLogic>
   <tlLogic id="1271504831" offset="0" programID="0" type="static">
      <phase duration="14.3878917532" state="G"/>
      <phase duration="6.44127671538" state="y"/>
   </tlLogic>
   <tlLogic id="1271504842" offset="0" programID="0" type="static">
      <phase duration="4.48780639594" state="G"/>
      <phase duration="9.52150045825" state="y"/>
   </tlLogic>
   <tlLogic id="1271504843" offset="0" programID="0" type="static">
      <phase duration="33.0414526778" state="Gr"/>
      <phase duration="9.97772397653" state="yr"/>
      <phase duration="33.0414526778" state="rG"/>
      <phase duration="9.97772397653" state="ry"/>
   </tlLogic>
   <tlLogic id="1271504849" offset="0" programID="0" type="static">
      <phase duration="15.9463199411" state="GGrrr"/>
      <phase duration="9.16727983086" state="yyrrr"/>
      <phase duration="15.9463199411" state="rrGrr"/>
      <phase duration="9.16727983086" state="rryrr"/>
      <phase duration="15.9463199411" state="rrrGG"/>
      <phase duration="9.16727983086" state="rrryy"/>
   </tlLogic>
   <tlLogic id="1271504852" offset="0" programID="0" type="static">
      <phase duration="15.7159496144" state="G"/>
      <phase duration="9.01595956913" state="y"/>
   </tlLogic>
   <tlLogic id="1271504855" offset="0" programID="0" type="static">
      <phase duration="8.5872269317" state="Gr"/>
      <phase duration="7.75816535824" state="yr"/>
      <phase duration="8.5872269317" state="rG"/>
      <phase duration="7.75816535824" state="ry"/>
   </tlLogic>
   <tlLogic id="1271504861" offset="0" programID="0" type="static">
      <phase duration="27.69093608" state="G"/>
      <phase duration="5.76412756449" state="y"/>
   </tlLogic>
   <tlLogic id="1271504863" offset="0" programID="0" type="static">
      <phase duration="26.2258391614" state="G"/>
      <phase duration="7.70981391389" state="y"/>
   </tlLogic>
   <tlLogic id="1271504864" offset="0" programID="0" type="static">
      <phase duration="34.8160672618" state="G"/>
      <phase duration="9.43077809583" state="y"/>
   </tlLogic>
   <tlLogic id="1271504867" offset="0" programID="0" type="static">
      <phase duration="6.85492203192" state="G"/>
      <phase duration="2.07188804643" state="y"/>
   </tlLogic>
   <tlLogic id="1271504868" offset="0" programID="0" type="static">
      <phase duration="15.7250548774" state="Gr"/>
      <phase duration="9.295978601" state="yr"/>
      <phase duration="15.7250548774" state="rG"/>
      <phase duration="9.295978601" state="ry"/>
   </tlLogic>
   <tlLogic id="1271504871" offset="0" programID="0" type="static">
      <phase duration="32.12410923" state="GGrr"/>
      <phase duration="7.19862882167" state="yyrr"/>
      <phase duration="32.12410923" state="rrGG"/>
      <phase duration="7.19862882167" state="rryy"/>
   </tlLogic>
   <tlLogic id="1271504876" offset="0" programID="0" type="static">
      <phase duration="28.9206472519" state="G"/>
      <phase duration="8.76000928623" state="y"/>
   </tlLogic>
   <tlLogic id="1271504881" offset="0" programID="0" type="static">
      <phase duration="39.9313019761" state="GGrrr"/>
      <phase duration="7.64661965947" state="yyrrr"/>
      <phase duration="39.9313019761" state="rrGrr"/>
      <phase duration="7.64661965947" state="rryrr"/>
      <phase duration="39.9313019761" state="rrrGG"/>
      <phase duration="7.64661965947" state="rrryy"/>
   </tlLogic>
   <tlLogic id="1271504883" offset="0" programID="0" type="static">
      <phase duration="11.4752198816" state="GGrrr"/>
      <phase duration="4.76638061342" state="yyrrr"/>
      <phase duration="11.4752198816" state="rrGrr"/>
      <phase duration="4.76638061342" state="rryrr"/>
      <phase duration="11.4752198816" state="rrrGG"/>
      <phase duration="4.76638061342" state="rrryy"/>
   </tlLogic>
   <tlLogic id="1271504884" offset="0" programID="0" type="static">
      <phase duration="12.8447655357" state="G"/>
      <phase duration="9.02735642431" state="y"/>
   </tlLogic>
   <tlLogic id="1271504891" offset="0" programID="0" type="static">
      <phase duration="2.73341683058" state="G"/>
      <phase duration="3.01707487838" state="y"/>
   </tlLogic>
   <tlLogic id="1271504894" offset="0" programID="0" type="static">
      <phase duration="4.45297560415" state="G"/>
      <phase duration="9.91734458749" state="y"/>
   </tlLogic>
   <tlLogic id="1271504901" offset="0" programID="0" type="static">
      <phase duration="11.1490480015" state="GGrrr"/>
      <phase duration="7.13727106815" state="yyrrr"/>
      <phase duration="11.1490480015" state="rrGrr"/>
      <phase duration="7.13727106815" state="rryrr"/>
      <phase duration="11.1490480015" state="rrrGG"/>
      <phase duration="7.13727106815" state="rrryy"/>
   </tlLogic>
   <tlLogic id="1271504908" offset="0" programID="0" type="static">
      <phase duration="23.5388746839" state="G"/>
      <phase duration="4.29377389681" state="y"/>
   </tlLogic>
   <tlLogic id="1271504911" offset="0" programID="0" type="static">
      <phase duration="39.8977545465" state="G"/>
      <phase duration="8.65391242811" state="y"/>
   </tlLogic>
   <tlLogic id="1271504918" offset="0" programID="0" type="static">
      <phase duration="32.7198903165" state="G"/>
      <phase duration="8.93964990693" state="y"/>
   </tlLogic>
   <tlLogic id="1299369678" offset="0" programID="0" type="static">
      <phase duration="17.2823821136" state="G"/>
      <phase duration="2.50506183091" state="y"/>
   </tlLogic>
   <tlLogic id="1299369679" offset="0" programID="0" type="static">
      <phase duration="27.784598605" state="G"/>
      <phase duration="1.53892022832" state="y"/>
   </tlLogic>
   <tlLogic id="1299369689" offset="0" programID="0" type="static">
      <phase duration="22.7023497258" state="GGrrr"/>
      <phase duration="7.49590320861" state="yyrrr"/>
      <phase duration="22.7023497258" state="rrGrr"/>
      <phase duration="7.49590320861" state="rryrr"/>
      <phase duration="22.7023497258" state="rrrGG"/>
      <phase duration="7.49590320861" state="rrryy"/>
   </tlLogic>
   <tlLogic id="1299369691" offset="0" programID="0" type="static">
      <phase duration="15.204826877" state="Gr"/>
      <phase duration="9.10664056315" state="yr"/>
      <phase duration="15.204826877" state="rG"/>
      <phase duration="9.10664056315" state="ry"/>
   </tlLogic>
   <tlLogic id="1299369697" offset="0" programID="0" type="static">
      <phase duration="16.0832577324" state="G"/>
      <phase duration="5.82607161818" state="y"/>
   </tlLogic>
   <tlLogic id="1299369701" offset="0" programID="0" type="static">
      <phase duration="38.0723409193" state="GGrrr"/>
      <phase duration="8.47540493173" state="yyrrr"/>
      <phase duration="38.0723409193" state="rrGrr"/>
      <phase duration="8.47540493173" state="rryrr"/>
      <phase duration="38.0723409193" state="rrrGG"/>
      <phase duration="8.47540493173" state="rrryy"/>
   </tlLogic>
   <tlLogic id="1312440651" offset="0" programID="0" type="static">
      <phase duration="12.9790706786" state="G"/>
      <phase duration="8.83179755878" state="y"/>
   </tlLogic>
   <tlLogic id="1312440715" offset="0" programID="0" type="static">
      <phase duration="8.79530824863" state="Gr"/>
      <phase duration="1.99681555355" state="yr"/>
      <phase duration="8.79530824863" state="rG"/>
      <phase duration="1.99681555355" state="ry"/>
   </tlLogic>
   <tlLogic id="1366801174" offset="0" programID="0" type="static">
      <phase duration="27.5495726931" state="G"/>
      <phase duration="8.72602345418" state="y"/>
   </tlLogic>
   <tlLogic id="1366801185" offset="0" programID="0" type="static">
      <phase duration="2.72668593234" state="G"/>
      <phase duration="7.57586909635" state="y"/>
   </tlLogic>
   <tlLogic id="1366801190" offset="0" programID="0" type="static"/>
   <tlLogic id="1366801191" offset="0" programID="0" type="static">
      <phase duration="13.5496939756" state="G"/>
      <phase duration="6.75387139155" state="y"/>
   </tlLogic>
   <tlLogic id="1366801194" offset="0" programID="0" type="static"/>
   <tlLogic id="1366801204" offset="0" programID="0" type="static">
      <phase duration="22.4415550049" state="G"/>
      <phase duration="5.43232512392" state="y"/>
   </tlLogic>
   <tlLogic id="1366801267" offset="0" programID="0" type="static">
      <phase duration="4.96722913108" state="Grr"/>
      <phase duration="5.3793707538" state="yrr"/>
      <phase duration="4.96722913108" state="rGr"/>
      <phase duration="5.3793707538" state="ryr"/>
      <phase duration="4.96722913108" state="rrG"/>
      <phase duration="5.3793707538" state="rry"/>
   </tlLogic>
   <tlLogic id="1492679675" offset="0" programID="0" type="static">
      <phase duration="3.9559085747" state="Gr"/>
      <phase duration="4.16565796388" state="yr"/>
      <phase duration="3.9559085747" state="rG"/>
      <phase duration="4.16565796388" state="ry"/>
   </tlLogic>
   <tlLogic id="1492679678" offset="0" programID="0" type="static">
      <phase duration="35.490268393" state="Gr"/>
      <phase duration="4.39423375953" state="yr"/>
      <phase duration="35.490268393" state="rG"/>
      <phase duration="4.39423375953" state="ry"/>
   </tlLogic>
   <tlLogic id="1492679681" offset="0" programID="0" type="static">
      <phase duration="10.3356394403" state="G"/>
      <phase duration="7.37521779954" state="y"/>
   </tlLogic>
   <tlLogic id="1492679696" offset="0" programID="0" type="static">
      <phase duration="33.3681580169" state="Gr"/>
      <phase duration="9.57407742664" state="yr"/>
      <phase duration="33.3681580169" state="rG"/>
      <phase duration="9.57407742664" state="ry"/>
   </tlLogic>
   <tlLogic id="1492679714" offset="0" programID="0" type="static">
      <phase duration="36.496377308" state="Gr"/>
      <phase duration="3.99987541167" state="yr"/>
      <phase duration="36.496377308" state="rG"/>
      <phase duration="3.99987541167" state="ry"/>
   </tlLogic>
   <tlLogic id="1492679718" offset="0" programID="0" type="static"/>
   <tlLogic id="1492679729" offset="0" programID="0" type="static">
      <phase duration="33.1806475819" state="G"/>
      <phase duration="6.38036292979" state="y"/>
   </tlLogic>
   <tlLogic id="1492679731" offset="0" programID="0" type="static">
      <phase duration="29.6120071615" state="Gr"/>
      <phase duration="5.16913714055" state="yr"/>
      <phase duration="29.6120071615" state="rG"/>
      <phase duration="5.16913714055" state="ry"/>
   </tlLogic>
   <tlLogic id="1492679733" offset="0" programID="0" type="static">
      <phase duration="38.9134528438" state="Gr"/>
      <phase duration="1.06111371394" state="yr"/>
      <phase duration="38.9134528438" state="rG"/>
      <phase duration="1.06111371394" state="ry"/>
   </tlLogic>
   <tlLogic id="1492679738" offset="0" programID="0" type="static">
      <phase duration="6.35841051828" state="G"/>
      <phase duration="9.63170856648" state="y"/>
   </tlLogic>
   <tlLogic id="1492679739" offset="0" programID="0" type="static">
      <phase duration="7.27790496692" state="G"/>
      <phase duration="5.16267800188" state="y"/>
   </tlLogic>
   <tlLogic id="1492679741" offset="0" programID="0" type="static">
      <phase duration="25.815020715" state="G"/>
      <phase duration="1.5418875427" state="y"/>
   </tlLogic>
   <tlLogic id="1492679747" offset="0" programID="0" type="static">
      <phase duration="23.0686029196" state="Gr"/>
      <phase duration="3.64959859315" state="yr"/>
      <phase duration="23.0686029196" state="rG"/>
      <phase duration="3.64959859315" state="ry"/>
   </tlLogic>
   <tlLogic id="1492679749" offset="0" programID="0" type="static">
      <phase duration="20.0360983827" state="GGrrr"/>
      <phase duration="6.85694089329" state="yyrrr"/>
      <phase duration="20.0360983827" state="rrGGr"/>
      <phase duration="6.85694089329" state="rryyr"/>
      <phase duration="20.0360983827" state="rrrrG"/>
      <phase duration="6.85694089329" state="rrrry"/>
   </tlLogic>
   <tlLogic id="1492729114" offset="0" programID="0" type="static">
      <phase duration="18.8517362938" state="Gr"/>
      <phase duration="4.92362819374" state="yr"/>
      <phase duration="18.8517362938" state="rG"/>
      <phase duration="4.92362819374" state="ry"/>
   </tlLogic>
   <tlLogic id="1492802030" offset="0" programID="0" type="static">
      <phase duration="14.3171546297" state="GGrr"/>
      <phase duration="9.29823986089" state="yyrr"/>
      <phase duration="14.3171546297" state="rrGG"/>
      <phase duration="9.29823986089" state="rryy"/>
   </tlLogic>
   <tlLogic id="1492802033" offset="0" programID="0" type="static">
      <phase duration="19.3849506619" state="GGrrr"/>
      <phase duration="2.08621394794" state="yyrrr"/>
      <phase duration="19.3849506619" state="rrGrr"/>
      <phase duration="2.08621394794" state="rryrr"/>
      <phase duration="19.3849506619" state="rrrGG"/>
      <phase duration="2.08621394794" state="rrryy"/>
   </tlLogic>
   <tlLogic id="1492802066" offset="0" programID="0" type="static">
      <phase duration="30.0013397925" state="Gr"/>
      <phase duration="5.2301255766" state="yr"/>
      <phase duration="30.0013397925" state="rG"/>
      <phase duration="5.2301255766" state="ry"/>
   </tlLogic>
   <tlLogic id="1492802067" offset="0" programID="0" type="static">
      <phase duration="19.7542588713" state="G"/>
      <phase duration="6.14937194546" state="y"/>
   </tlLogic>
   <tlLogic id="1492802068" offset="0" programID="0" type="static">
      <phase duration="18.3759529436" state="Gr"/>
      <phase duration="5.26700767067" state="yr"/>
      <phase duration="18.3759529436" state="rG"/>
      <phase duration="5.26700767067" state="ry"/>
   </tlLogic>
   <tlLogic id="1492802069" offset="0" programID="0" type="static">
      <phase duration="15.9384407866" state="G"/>
      <phase duration="3.3041915643" state="y"/>
   </tlLogic>
   <tlLogic id="1492802079" offset="0" programID="0" type="static">
      <phase duration="38.0905968396" state="Gr"/>
      <phase duration="2.08944836314" state="yr"/>
      <phase duration="38.0905968396" state="rG"/>
      <phase duration="2.08944836314" state="ry"/>
   </tlLogic>
   <tlLogic id="1492802125" offset="0" programID="0" type="static">
      <phase duration="37.8312512144" state="Gr"/>
      <phase duration="4.0379391313" state="yr"/>
      <phase duration="37.8312512144" state="rG"/>
      <phase duration="4.0379391313" state="ry"/>
   </tlLogic>
   <tlLogic id="1492802133" offset="0" programID="0" type="static">
      <phase duration="5.47673716114" state="Grr"/>
      <phase duration="3.91022009077" state="yrr"/>
      <phase duration="5.47673716114" state="rGr"/>
      <phase duration="3.91022009077" state="ryr"/>
      <phase duration="5.47673716114" state="rrG"/>
      <phase duration="3.91022009077" state="rry"/>
   </tlLogic>
   <tlLogic id="1492802187" offset="0" programID="0" type="static">
      <phase duration="37.3028655018" state="Gr"/>
      <phase duration="7.67053108227" state="yr"/>
      <phase duration="37.3028655018" state="rG"/>
      <phase duration="7.67053108227" state="ry"/>
   </tlLogic>
   <tlLogic id="1520433227" offset="0" programID="0" type="static">
      <phase duration="6.45911579357" state="Gr"/>
      <phase duration="5.95380367492" state="yr"/>
      <phase duration="6.45911579357" state="rG"/>