<?xml version="1.0" ?>
<tlLogics>
   <tlLogic id="1000099468" offset="0" programID="0" type="static">
      <phase duration="14.6245785537" state="G"/>
      <phase duration="4.78850681485" state="y"/>
   </tlLogic>
   <tlLogic id="1000099503" offset="0" programID="0" type="static">
      <phase duration="32.5110383557" state="GGGrrrrrrrr"/>
      <phase duration="6.01947643527" state="yyyrrrrrrrr"/>
      <phase duration="32.5110383557" state="rrrGGGrrrrr"/>
      <phase duration="6.01947643527" state="rrryyyrrrrr"/>
      <phase duration="32.5110383557" state="rrrrrrGGGGG"/>
      <phase duration="6.01947643527" state="rrrrrryyyyy"/>
   </tlLogic>
   <tlLogic id="1000099520" offset="0" programID="0" type="static">
      <phase duration="8.0265531565" state="G"/>
      <phase duration="5.84004453812" state="y"/>
   </tlLogic>
   <tlLogic id="1000099544" offset="0" programID="0" type="static">
      <phase duration="24.8777831977" state="GGrrr"/>
      <phase duration="4.52842347273" state="yyrrr"/>
      <phase duration="24.8777831977" state="rrGGr"/>
      <phase duration="4.52842347273" state="rryyr"/>
      <phase duration="24.8777831977" state="rrrrG"/>
      <phase duration="4.52842347273" state="rrrry"/>
   </tlLogic>
   <tlLogic id="1000099551" offset="0" programID="0" type="static">
      <phase duration="16.7861884558" state="G"/>
      <phase duration="9.32645272611" state="y"/>
   </tlLogic>
   <tlLogic id="1000099591" offset="0" programID="0" type="static">
      <phase duration="11.8045156843" state="GGrr"/>
      <phase duration="7.57353033268" state="yyrr"/>
      <phase duration="11.8045156843" state="rrGG"/>
      <phase duration="7.57353033268" state="rryy"/>
   </tlLogic>
   <tlLogic id="1000099607" offset="0" programID="0" type="static">
      <phase duration="24.431317203" state="GGr"/>
      <phase duration="4.68246940777" state="yyr"/>
      <phase duration="24.431317203" state="rrG"/>
      <phase duration="4.68246940777" state="rry"/>
   </tlLogic>
   <tlLogic id="1000099650" offset="0" programID="0" type="static">
      <phase duration="30.5924461683" state="G"/>
      <phase duration="9.13859365383" state="y"/>
   </tlLogic>
   <tlLogic id="1000099651" offset="0" programID="0" type="static">
      <phase duration="14.7745192127" state="GGrrrr"/>
      <phase duration="8.13462724077" state="yyrrrr"/>
      <phase duration="14.7745192127" state="rrGGrr"/>
      <phase duration="8.13462724077" state="rryyrr"/>
      <phase duration="14.7745192127" state="rrrrGG"/>
      <phase duration="8.13462724077" state="rrrryy"/>
   </tlLogic>
   <tlLogic id="1000099724" offset="0" programID="0" type="static">
      <phase duration="8.49030668389" state="Grrr"/>
      <phase duration="4.94955944992" state="yrrr"/>
      <phase duration="8.49030668389" state="rGGG"/>
      <phase duration="4.94955944992" state="ryyy"/>
   </tlLogic>
   <tlLogic id="1000099741" offset="0" programID="0" type="static">
      <phase duration="15.887952317" state="GGrr"/>
      <phase duration="8.16036996564" state="yyrr"/>
      <phase duration="15.887952317" state="rrGG"/>
      <phase duration="8.16036996564" state="rryy"/>
   </tlLogic>
   <tlLogic id="1012321580" offset="0" programID="0" type="static">
      <phase duration="30.3533878808" state="Gr"/>
      <phase duration="6.00364864575" state="yr"/>
      <phase duration="30.3533878808" state="rG"/>
      <phase duration="6.00364864575" state="ry"/>
   </tlLogic>
   <tlLogic id="1012326820" offset="0" programID="0" type="static">
      <phase duration="23.9972183427" state="G"/>
      <phase duration="7.71173604603" state="y"/>
   </tlLogic>
   <tlLogic id="1028832186" offset="0" programID="0" type="static"/>
   <tlLogic id="1028832536" offset="0" programID="0" type="static"/>
   <tlLogic id="1037290808" offset="0" programID="0" type="static">
      <phase duration="13.6488374438" state="GGGrrrrrr"/>
      <phase duration="6.32352435497" state="yyyrrrrrr"/>
      <phase duration="13.6488374438" state="rrrGGGrrr"/>
      <phase duration="6.32352435497" state="rrryyyrrr"/>
      <phase duration="13.6488374438" state="rrrrrrGGG"/>
      <phase duration="6.32352435497" state="rrrrrryyy"/>
   </tlLogic>
   <tlLogic id="1037290863" offset="0" programID="0" type="static">
      <phase duration="14.8253278881" state="GGrr"/>
      <phase duration="9.50686284332" state="yyrr"/>
      <phase duration="14.8253278881" state="rrGG"/>
      <phase duration="9.50686284332" state="rryy"/>
   </tlLogic>
   <tlLogic id="1037290889" offset="0" programID="0" type="static">
      <phase duration="32.4987704924" state="GGrr"/>
      <phase duration="2.97540369858" state="yyrr"/>
      <phase duration="32.4987704924" state="rrGG"/>
      <phase duration="2.97540369858" state="rryy"/>
   </tlLogic>
   <tlLogic id="1037290915" offset="0" programID="0" type="static">
      <phase duration="27.8146337913" state="GGrrr"/>
      <phase duration="3.80410773113" state="yyrrr"/>
      <phase duration="27.8146337913" state="rrGGG"/>
      <phase duration="3.80410773113" state="rryyy"/>
   </tlLogic>
   <tlLogic id="1040964328" offset="0" programID="0" type="static">
      <phase duration="24.2908904259" state="Gr"/>
      <phase duration="6.91116395314" state="yr"/>
      <phase duration="24.2908904259" state="rG"/>
      <phase duration="6.91116395314" state="ry"/>
   </tlLogic>
   <tlLogic id="1040964333" offset="0" programID="0" type="static">
      <phase duration="25.0523170337" state="Gr"/>
      <phase duration="3.37262703815" state="yr"/>
      <phase duration="25.0523170337" state="rG"/>
      <phase duration="3.37262703815" state="ry"/>
   </tlLogic>
   <tlLogic id="1045044692" offset="0" programID="0" type="static">
      <phase duration="9.21102752466" state="Gr"/>
      <phase duration="8.93722507547" state="yr"/>
      <phase duration="9.21102752466" state="rG"/>
      <phase duration="8.93722507547" state="ry"/>
   </tlLogic>
   <tlLogic id="1045044715" offset="0" programID="0" type="static">
      <phase duration="38.1474089441" state="Gr"/>
      <phase duration="8.12650973546" state="yr"/>
      <phase duration="38.1474089441" state="rG"/>
      <phase duration="8.12650973546" state="ry"/>
   </tlLogic>
   <tlLogic id="1045044796" offset="0" programID="0" type="static">
      <phase duration="23.9656776631" state="Gr"/>
      <phase duration="2.87342549064" state="yr"/>
      <phase duration="23.9656776631" state="rG"/>
      <phase duration="2.87342549064" state="ry"/>
   </tlLogic>
   <tlLogic id="1045044863" offset="0" programID="0" type="static">
      <phase duration="23.3299990495" state="G"/>
      <phase duration="6.04180088937" state="y"/>
   </tlLogic>
   <tlLogic id="1109589987" offset="0" programID="0" type="static">
      <phase duration="27.4569566946" state="GGrr"/>
      <phase duration="3.74321704772" state="yyrr"/>
      <phase duration="27.4569566946" state="rrGG"/>
      <phase duration="3.74321704772" state="rryy"/>
   </tlLogic>
   <tlLogic id="1150667539" offset="0" programID="0" type="static">
      <phase duration="6.08293362091" state="G"/>
      <phase duration="8.07846285132" state="y"/>
   </tlLogic>
   <tlLogic id="1150667586" offset="0" programID="0" type="static">
      <phase duration="24.6397318067" state="G"/>
      <phase duration="3.87228306366" state="y"/>
   </tlLogic>
   <tlLogic id="1150667603" offset="0" programID="0" type="static">
      <phase duration="18.0957682108" state="Gr"/>
      <phase duration="7.3122187225" state="yr"/>
      <phase duration="18.0957682108" state="rG"/>
      <phase duration="7.3122187225" state="ry"/>
   </tlLogic>
   <tlLogic id="1150667622" offset="0" programID="0" type="static">
      <phase duration="8.66953523757" state="G"/>
      <phase duration="6.94773108544" state="y"/>
   </tlLogic>
   <tlLogic id="1156723834" offset="0" programID="0" type="static">
      <phase duration="16.7313851724" state="G"/>
      <phase duration="3.5122767774" state="y"/>
   </tlLogic>
   <tlLogic id="1156723839" offset="0" programID="0" type="static">
      <phase duration="16.5390393777" state="Gr"/>
      <phase duration="8.9153704262" state="yr"/>
      <phase duration="16.5390393777" state="rG"/>
      <phase duration="8.9153704262" state="ry"/>
   </tlLogic>
   <tlLogic id="1157698150" offset="0" programID="0" type="static">
      <phase duration="9.98393467461" state="G"/>
      <phase duration="4.17419618181" state="y"/>
   </tlLogic>
   <tlLogic id="1200892937" offset="0" programID="0" type="static">
      <phase duration="31.4397731621" state="G"/>
      <phase duration="2.42029467037" state="y"/>
   </tlLogic>
   <tlLogic id="1200892960" offset="0" programID="0" type="static">
      <phase duration="36.1275430441" state="Gr"/>
      <phase duration="7.59402615205" state="yr"/>
      <phase duration="36.1275430441" state="rG"/>
      <phase duration="7.59402615205" state="ry"/>
   </tlLogic>
   <tlLogic id="1201745377" offset="0" programID="0" type="static">
      <phase duration="28.5909384442" state="G"/>
      <phase duration="7.5344008841" state="y"/>
   </tlLogic>
   <tlLogic id="1201745399" offset="0" programID="0" type="static"/>
   <tlLogic id="1201745409" offset="0" programID="0" type="static">
      <phase duration="13.8634778441" state="G"/>
      <phase duration="6.42717856154" state="y"/>
   </tlLogic>
   <tlLogic id="1211136497" offset="0" programID="0" type="static">
      <phase duration="15.1382164689" state="GGrr"/>
      <phase duration="5.08393281268" state="yyrr"/>
      <phase duration="15.1382164689" state="rrGG"/>
      <phase duration="5.08393281268" state="rryy"/>
   </tlLogic>
   <tlLogic id="1220020545" offset="0" programID="0" type="static">
      <phase duration="27.2108636929" state="GGrrr"/>
      <phase duration="3.18914268589" state="yyrrr"/>
      <phase duration="27.2108636929" state="rrGrr"/>
      <phase duration="3.18914268589" state="rryrr"/>
      <phase duration="27.2108636929" state="rrrGG"/>
      <phase duration="3.18914268589" state="rrryy"/>
   </tlLogic>
   <tlLogic id="1220020630" offset="0" programID="0" type="static">
      <phase duration="13.8121996418" state="Gr"/>
      <phase duration="8.8456347033" state="yr"/>
      <phase duration="13.8121996418" state="rG"/>
      <phase duration="8.8456347033" state="ry"/>
   </tlLogic>
   <tlLogic id="1220020656" offset="0" programID="0" type="static">
      <phase duration="18.4649540689" state="GGrr"/>
      <phase duration="3.20817046256" state="yyrr"/>
      <phase duration="18.4649540689" state="rrGG"/>
      <phase duration="3.20817046256" state="rryy"/>
   </tlLogic>
   <tlLogic id="1220020673" offset="0" programID="0" type="static">
      <phase duration="24.3446959519" state="GGGrrrrrr"/>
      <phase duration="9.26483631472" state="yyyrrrrrr"/>
      <phase duration="24.3446959519" state="rrrGGGrrr"/>
      <phase duration="9.26483631472" state="rrryyyrrr"/>
      <phase duration="24.3446959519" state="rrrrrrGGG"/>
      <phase duration="9.26483631472" state="rrrrrryyy"/>
   </tlLogic>
   <tlLogic id="1229522554" offset="0" programID="0" type="static">
      <phase duration="34.6913183844" state="G"/>
      <phase duration="8.00527514084" state="y"/>
   </tlLogic>
   <tlLogic id="1252285092" offset="0" programID="0" type="static">
      <phase duration="8.37740061571" state="G"/>
      <phase duration="5.77492473805" state="y"/>
   </tlLogic>
   <tlLogic id="1252285093" offset="0" programID="0" type="static">
      <phase duration="14.2725000401" state="Gr"/>
      <phase duration="4.38662399915" state="yr"/>
      <phase duration="14.2725000401" state="rG"/>
      <phase duration="4.38662399915" state="ry"/>
   </tlLogic>
   <tlLogic id="1252285107" offset="0" programID="0" type="static">
      <phase duration="7.73274171945" state="G"/>
      <phase duration="5.41679085159" state="y"/>
   </tlLogic>
   <tlLogic id="1252285133" offset="0" programID="0" type="static">
      <phase duration="12.9249799212" state="Gr"/>
      <phase duration="4.91557280071" state="yr"/>
      <phase duration="12.9249799212" state="rG"/>
      <phase duration="4.91557280071" state="ry"/>
   </tlLogic>
   <tlLogic id="1252285138" offset="0" programID="0" type="static">
      <phase duration="24.4435735667" state="G"/>
      <phase duration="3.41142545185" state="y"/>
   </tlLogic>
   <tlLogic id="1252285140" offset="0" programID="0" type="static">
      <phase duration="22.3468110288" state="Gr"/>
      <phase duration="3.40772312866" state="yr"/>
      <phase duration="22.3468110288" state="rG"/>
      <phase duration="3.40772312866" state="ry"/>
   </tlLogic>
   <tlLogic id="1258258237" offset="0" programID="0" type="static">
      <phase duration="25.3153247064" state="GGr"/>
      <phase duration="3.04675048019" state="yyr"/>
      <phase duration="25.3153247064" state="rrG"/>
      <phase duration="3.04675048019" state="rry"/>
   </tlLogic>
   <tlLogic id="1271504743" offset="0" programID="0" type="static">
      <phase duration="18.1328358808" state="G"/>
      <phase duration="6.33220550226" state="y"/>
   </tlLogic>
   <tlLogic id="1271504755" offset="0" programID="0" type="static">
      <phase duration="18.9743473228" state="GGrrr"/>
      <phase duration="3.37891413789" state="yyrrr"/>
      <phase duration="18.9743473228" state="rrGrr"/>
      <phase duration="3.37891413789" state="rryrr"/>
      <phase duration="18.9743473228" state="rrrGG"/>
      <phase duration="3.37891413789" state="rrryy"/>
   </tlLogic>
   <tlLogic id="1271504757" offset="0" programID="0" type="static">
      <phase duration="29.9341380416" state="GGrrr"/>
      <phase duration="7.15767891166" state="yyrrr"/>
      <phase duration="29.9341380416" state="rrGrr"/>
      <phase duration="7.15767891166" state="rryrr"/>
      <phase duration="29.9341380416" state="rrrGG"/>
      <phase duration="7.15767891166" state="rrryy"/>
   </tlLogic>
   <tlLogic id="1271504758" offset="0" programID="0" type="static">
      <phase duration="37.853070938" state="G"/>
      <phase duration="6.69173159404" state="y"/>
   </tlLogic>
   <tlLogic id="1271504763" offset="0" programID="0" type="static">
      <phase duration="15.455334421" state="G"/>
      <phase duration="5.93711077424" state="y"/>
   </tlLogic>
   <tlLogic id="1271504767" offset="0" programID="0" type="static">
      <phase duration="26.549951655" state="G"/>
      <phase duration="7.23588069108" state="y"/>
   </tlLogic>
   <tlLogic id="1271504768" offset="0" programID="0" type="static">
      <phase duration="11.7799659282" state="Gr"/>
      <phase duration="9.20534685938" state="yr"/>
      <phase duration="11.7799659282" state="rG"/>
      <phase duration="9.20534685938" state="ry"/>
   </tlLogic>
   <tlLogic id="1271504773" offset="0" programID="0" type="static">
      <phase duration="17.2604247544" state="GGrrr"/>
      <phase duration="7.04259943285" state="yyrrr"/>
      <phase duration="17.2604247544" state="rrGrr"/>
      <phase duration="7.04259943285" state="rryrr"/>
      <phase duration="17.2604247544" state="rrrGG"/>
      <phase duration="7.04259943285" state="rrryy"/>
   </tlLogic>
   <tlLogic id="1271504781" offset="0" programID="0" type="static">
      <phase duration="25.8046695199" state="GGrrr"/>
      <phase duration="6.2212377718" state="yyrrr"/>
      <phase duration="25.8046695199" state="rrGrr"/>
      <phase duration="6.2212377718" state="rryrr"/>
      <phase duration="25.8046695199" state="rrrGG"/>
      <phase duration="6.2212377718" state="rrryy"/>
   </tlLogic>
   <tlLogic id="1271504783" offset="0" programID="0" type="static">
      <phase duration="9.29421958414" state="Gr"/>
      <phase duration="7.85411850194" state="yr"/>
      <phase duration="9.29421958414" state="rG"/>
      <phase duration="7.85411850194" state="ry"/>
   </tlLogic>
   <tlLogic id="1271504797" offset="0" programID="0" type="static">
      <phase duration="25.1685852765" state="Gr"/>
      <phase duration="4.17837929797" state="yr"/>
      <phase duration="25.1685852765" state="rG"/>
      <phase duration="4.17837929797" state="ry"/>
   </tlLogic>
   <tlLogic id="1271504801" offset="0" programID="0" type="static">
      <phase duration="16.4680760978" state="G"/>
      <phase duration="5.81764742378" state="y"/>
   </tlLogic>
   <tlLogic id="1271504812" offset="0" programID="0" type="static">
      <phase duration="31.3006139292" state="G"/>
      <phase duration="5.89482849562" state="y"/>
   </tlLogic>
   <tlLogic id="1271504815" offset="0" programID="0" type="static">
      <phase duration="14.0912740606" state="Gr"/>
      <phase duration="2.01047632645" state="yr"/>
      <phase duration="14.0912740606" state="rG"/>
      <phase duration="2.01047632645" state="ry"/>
   </tlLogic>
   <tlLogic id="1271504819" offset="0" programID="0" type="static">
      <phase duration="10.2561186614" state="Gr"/>
      <phase duration="3.33478682913" state="yr"/>
      <phase duration="10.2561186614" state="rG"/>
      <phase duration="3.33478682913" state="ry"/>
   </tlLogic>
   <tlLogic id="1271504822" offset="0" programID="0" type="static">
      <phase duration="15.0770070774" state="G"/>
      <phase duration="4.61370927486" state="y"/>
   </tlLogic>
   <tlLogic id="1271504823" offset="0" programID="0" type="static">
      <phase duration="25.6233379255" state="G"/>
      <phase duration="3.26557488439" state="y"/>
   </tlLogic>
   <tlLogic id="1271504824" offset="0" programID="0" type="static">
      <phase duration="32.4532876402" state="G"/>
      <phase duration="3.44858504903" state="y"/>
   </tlLogic>
   <tlLogic id="1271504827" offset="0" programID="0" type="static">
      <phase duration="26.4781363451" state="Gr"/>
      <phase duration="7.05585870541" state="yr"/>
      <phase duration="26.4781363451" state="rG"/>
      <phase duration="7.05585870541" state="ry"/>
   </tlLogic>
   <tlLogic id="1271504830" offset="0" programID="0" type="static">
      <phase duration="9.30690345859" state="GGrrr"/>
      <phase duration="6.34980341328" state="yyrrr"/>
      <phase duration="9.30690345859" state="rrGrr"/>
      <phase duration="6.34980341328" state="rryrr"/>
      <phase duration="9.30690345859" state="rrrGG"/>
      <phase duration="6.34980341328" state="rrryy"/>
   </tlLogic>
   <tlLogic id="1271504831" offset="0" programID="0" type="static">
      <phase duration="17.2792814866" state="G"/>
      <phase duration="3.60239318122" state="y"/>
   </tlLogic>
   <tlLogic id="1271504834" offset="0" programID="0" type="static">
      <phase duration="2.28175023245" state="G"/>
      <phase duration="2.68388787029" state="y"/>
   </tlLogic>
   <tlLogic id="1271504836" offset="0" programID="0" type="static">
      <phase duration="31.1605009222" state="G"/>
      <phase duration="3.56636597184" state="y"/>
   </tlLogic>
   <tlLogic id="1271504838" offset="0" programID="0" type="static">
      <phase duration="14.2866589402" state="GGrrr"/>
      <phase duration="9.73269084137" state="yyrrr"/>
      <phase duration="14.2866589402" state="rrGGr"/>
      <phase duration="9.73269084137" state="rryyr"/>
      <phase duration="14.2866589402" state="rrrrG"/>
      <phase duration="9.73269084137" state="rrrry"/>
   </tlLogic>
   <tlLogic id="1271504841" offset="0" programID="0" type="static">
      <phase duration="31.6202507052" state="G"/>
      <phase duration="5.89078043676" state="y"/>
   </tlLogic>
   <tlLogic id="1271504842" offset="0" programID="0" type="static">
      <phase duration="19.431285126" state="G"/>
      <phase duration="3.69478694919" state="y"/>
   </tlLogic>
   <tlLogic id="1271504843" offset="0" programID="0" type="static">
      <phase duration="11.0828909981" state="Gr"/>
      <phase duration="7.3777551426" state="yr"/>
      <phase duration="11.0828909981" state="rG"/>
      <phase duration="7.3777551426" state="ry"/>
   </tlLogic>
   <tlLogic id="1271504845" offset="0" programID="0" type="static">
      <phase duration="21.0874747839" state="G"/>
      <phase duration="5.19838829114" state="y"/>
   </tlLogic>
   <tlLogic id="1271504852" offset="0" programID="0" type="static">
      <phase duration="29.3170629743" state="G"/>
      <phase duration="6.18553471861" state="y"/>
   </tlLogic>
   <tlLogic id="1271504858" offset="0" programID="0" type="static">
      <phase duration="1.87124680941" state="G"/>
      <phase duration="6.13462926409" state="y"/>
   </tlLogic>
   <tlLogic id="1271504863" offset="0" programID="0" type="static">
      <phase duration="36.9981239919" state="G"/>
      <phase duration="6.67278746054" state="y"/>
   </tlLogic>
   <tlLogic id="1271504864" offset="0" programID="0" type="static">
      <phase duration="8.5700949535" state="G"/>
      <phase duration="6.45431783385" state="y"/>
   </tlLogic>
   <tlLogic id="1271504872" offset="0" programID="0" type="static">
      <phase duration="15.4053303455" state="G"/>
      <phase duration="5.46381140315" state="y"/>
   </tlLogic>
   <tlLogic id="1271504873" offset="0" programID="0" type="static">
      <phase duration="23.056646311" state="GGrrr"/>
      <phase duration="5.20825219846" state="yyrrr"/>
      <phase duration="23.056646311" state="rrGrr"/>
      <phase duration="5.20825219846" state="rryrr"/>
      <phase duration="23.056646311" state="rrrGG"/>
      <phase duration="5.20825219846" state="rrryy"/>
   </tlLogic>
   <tlLogic id="1271504875" offset="0" programID="0" type="static">
      <phase duration="6.94118039011" state="G"/>
      <phase duration="8.24664740262" state="y"/>
   </tlLogic>
   <tlLogic id="1271504876" offset="0" programID="0" type="static">
      <phase duration="10.5215972736" state="G"/>
      <phase duration="3.89668692189" state="y"/>
   </tlLogic>
   <tlLogic id="1271504878" offset="0" programID="0" type="static">
      <phase duration="31.4577780852" state="G"/>
      <phase duration="4.28296423913" state="y"/>
   </tlLogic>
   <tlLogic id="1271504881" offset="0" programID="0" type="static">
      <phase duration="9.82639594015" state="GGrrr"/>
      <phase duration="7.45512584897" state="yyrrr"/>
      <phase duration="9.82639594015" state="rrGrr"/>
      <phase duration="7.45512584897" state="rryrr"/>
      <phase duration="9.82639594015" state="rrrGG"/>
      <phase duration="7.45512584897" state="rrryy"/>
   </tlLogic>
   <tlLogic id="1271504887" offset="0" programID="0" type="static">
      <phase duration="8.32662051099" state="G"/>
      <phase duration="2.29174396824" state="y"/>
   </tlLogic>
   <tlLogic id="1271504888" offset="0" programID="0" type="static">
      <phase duration="25.2909710383" state="G"/>
      <phase duration="5.65999196072" state="y"/>
   </tlLogic>
   <tlLogic id="1271504891" offset="0" programID="0" type="static">
      <phase duration="21.7304036584" state="G"/>
      <phase duration="7.32846157582" state="y"/>
   </tlLogic>
   <tlLogic id="1271504893" offset="0" programID="0" type="static">
      <phase duration="19.62993856" state="GGrrr"/>
      <phase duration="5.08298528103" state="yyrrr"/>
      <phase duration="19.62993856" state="rrGrr"/>
      <phase duration="5.08298528103" state="rryrr"/>
      <phase duration="19.62993856" state="rrrGG"/>
      <phase duration="5.08298528103" state="rrryy"/>
   </tlLogic>
   <tlLogic id="1271504894" offset="0" programID="0" type="static">
      <phase duration="12.9595875911" state="G"/>
      <phase duration="7.14865409731" state="y"/>
   </tlLogic>
   <tlLogic id="1271504898" offset="0" programID="0" type="static">
      <phase duration="11.9025321501" state="Gr"/>
      <phase duration="5.81528744186" state="yr"/>
      <phase duration="11.9025321501" state="rG"/>
      <phase duration="5.81528744186" state="ry"/>
   </tlLogic>
   <tlLogic id="1271504899" offset="0" programID="0" type="static">
      <phase duration="24.8373571921" state="G"/>
      <phase duration="7.17028740086" state="y"/>
   </tlLogic>
   <tlLogic id="1271504902" offset="0" programID="0" type="static">
      <phase duration="21.7098891617" state="Gr"/>
      <phase duration="2.73670300869" state="yr"/>
      <phase duration="21.7098891617" state="rG"/>
      <phase duration="2.73670300869" state="ry"/>
   </tlLogic>
   <tlLogic id="1271504905" offset="0" programID="0" type="static">
      <phase duration="30.0896487598" state="G"/>
      <phase duration="7.32682978576" state="y"/>
   </tlLogic>
   <tlLogic id="1271504907" offset="0" programID="0" type="static">
      <phase duration="21.0796703176" state="G"/>
      <phase duration="5.9640099653" state="y"/>
   </tlLogic>
   <tlLogic id="1271504908" offset="0" programID="0" type="static">
      <phase duration="25.0004910389" state="G"/>
      <phase duration="8.99960754214" state="y"/>
   </tlLogic>
   <tlLogic id="1271504910" offset="0" programID="0" type="static">
      <phase duration="14.645730356" state="Gr"/>
      <phase duration="5.85150065472" state="yr"/>
      <phase duration="14.645730356" state="rG"/>
      <phase duration="5.85150065472" state="ry"/>
   </tlLogic>
   <tlLogic id="1271504913" offset="0" programID="0" type="static">
      <phase duration="26.8676037152" state="GGrrr"/>
      <phase duration="3.92842585235" state="yyrrr"/>
      <phase duration="26.8676037152" state="rrGGr"/>
      <phase duration="3.92842585235" state="rryyr"/>
      <phase duration="26.8676037152" state="rrrrG"/>
      <phase duration="3.92842585235" state="rrrry"/>
   </tlLogic>
   <tlLogic id="1299369678" offset="0" programID="0" type="static">
      <phase duration="9.18431000613" state="G"/>
      <phase duration="6.41491326312" state="y"/>
   </tlLogic>
   <tlLogic id="1299369684" offset="0" programID="0" type="static">
      <phase duration="31.2612307005" state="G"/>
      <phase duration="7.93221923671" state="y"/>
   </tlLogic>
   <tlLogic id="1299369699" offset="0" programID="0" type="static">
      <phase duration="12.5758691706" state="G"/>
      <phase duration="4.493337767" state="y"/>
   </tlLogic>
   <tlLogic id="1312440715" offset="0" programID="0" type="static">
      <phase duration="35.5315293971" state="Gr"/>
      <phase duration="7.42778975724" state="yr"/>
      <phase duration="35.5315293971" state="rG"/>
      <phase duration="7.42778975724" state="ry"/>
   </tlLogic>
   <tlLogic id="1312812204" offset="0" programID="0" type="static">
      <phase duration="23.0581309376" state="G"/>
      <phase duration="4.05431065598" state="y"/>
   </tlLogic>
   <tlLogic id="1353566368" offset="0" programID="0" type="static">
      <phase duration="27.862388371" state="G"/>
      <phase duration="5.20527042133" state="y"/>
   </tlLogic>
   <tlLogic id="1353566371" offset="0" programID="0" type="static">
      <phase duration="26.2306614557" state="G"/>
      <phase duration="5.78495455491" state="y"/>
   </tlLogic>
   <tlLogic id="1360932319" offset="0" programID="0" type="static"/>
   <tlLogic id="1366801191" offset="0" programID="0" type="static">
      <phase duration="14.2790818513" state="G"/>
      <phase duration="7.90386799083" state="y"/>
   </tlLogic>
   <tlLogic id="1366801194" offset="0" programID="0" type="static"/>
   <tlLogic id="1366801200" offset="0" programID="0" type="static">
      <phase duration="21.7256339335" state="Gr"/>
      <phase duration="4.66306811467" state="yr"/>
      <phase duration="21.7256339335" state="rG"/>
      <phase duration="4.66306811467" state="ry"/>
   </tlLogic>
   <tlLogic id="1366801204" offset="0" programID="0" type="static">
      <phase duration="16.1117458495" state="G"/>
      <phase duration="5.35144998138" state="y"/>
   </tlLogic>
   <tlLogic id="1366801221" offset="0" programID="0" type="static">
      <phase duration="34.0372359861" state="Gr"/>
      <phase duration="7.8638757108" state="yr"/>
      <phase duration="34.0372359861" state="rG"/>
      <phase duration="7.8638757108" state="ry"/>
   </tlLogic>
   <tlLogic id="1366801262" offset="0" programID="0" type="static">
      <phase duration="28.9616809024" state="G"/>
      <phase duration="4.7178461876" state="y"/>
   </tlLogic>
   <tlLogic id="1366801267" offset="0" programID="0" type="static">
      <phase duration="33.1578781624" state="Grr"/>
      <phase duration="5.85799824948" state="yrr"/>
      <phase duration="33.1578781624" state="rGr"/>
      <phase duration="5.85799824948" state="ryr"/>
      <phase duration="33.1578781624" state="rrG"/>
      <phase duration="5.85799824948" state="rry"/>
   </tlLogic>
   <tlLogic id="1492679678" offset="0" programID="0" type="static">
      <phase duration="26.9086623073" state="Gr"/>
      <phase duration="3.9169481455" state="yr"/>
      <phase duration="26.9086623073" state="rG"/>
      <phase duration="3.9169481455" state="ry"/>
   </tlLogic>
   <tlLogic id="1492679681" offset="0" programID="0" type="static">
      <phase duration="34.2458052772" state="G"/>
      <phase duration="6.80872222025" state="y"/>
   </tlLogic>
   <tlLogic id="1492679687" offset="0" programID="0" type="static">
      <phase duration="25.1943148551" state="Gr"/>
      <phase duration="7.39912129853" state="yr"/>
      <phase duration="25.1943148551" state="rG"/>
      <phase duration="7.39912129853" state="ry"/>
   </tlLogic>
   <tlLogic id="1492679688" offset="0" programID="0" type="static">
      <phase duration="8.43858388582" state="G"/>
      <phase duration="6.56988533706" state="y"/>
   </tlLogic>
   <tlLogic id="1492679718" offset="0" programID="0" type="static"/>
   <tlLogic id="1492679731" offset="0" programID="0" type="static">
      <phase duration="20.7849297798" state="Gr"/>
      <phase duration="4.85156322634" state="yr"/>
      <phase duration="20.7849297798" state="rG"/>
      <phase duration="4.85156322634" state="ry"/>
   </tlLogic>
   <tlLogic id="1492679740" offset="0" programID="0" type="static">
      <phase duration="14.7572715561" state="G"/>
      <phase duration="3.02160407167" state="y"/>