<?xml version="1.0" ?>
<tlLogics>
   <tlLogic id="1000099475" offset="0" programID="0" type="static">
      <phase duration="12.8702033894" state="GG"/>
      <phase duration="9.23969568441" state="yy"/>
   </tlLogic>
   <tlLogic id="1000099520" offset="0" programID="0" type="static">
      <phase duration="15.1604396752" state="G"/>
      <phase duration="1.25861413909" state="y"/>
   </tlLogic>
   <tlLogic id="1000099553" offset="0" programID="0" type="static">
      <phase duration="17.2857722139" state="Gr"/>
      <phase duration="4.83654991281" state="yr"/>
      <phase duration="17.2857722139" state="rG"/>
      <phase duration="4.83654991281" state="ry"/>
   </tlLogic>
   <tlLogic id="1000099576" offset="0" programID="0" type="static">
      <phase duration="23.3314473766" state="Grrrr"/>
      <phase duration="6.60109612863" state="yrrrr"/>
      <phase duration="23.3314473766" state="rGGrr"/>
      <phase duration="6.60109612863" state="ryyrr"/>
      <phase duration="23.3314473766" state="rrrGG"/>
      <phase duration="6.60109612863" state="rrryy"/>
   </tlLogic>
   <tlLogic id="1000099650" offset="0" programID="0" type="static">
      <phase duration="19.8183575335" state="G"/>
      <phase duration="6.66096285985" state="y"/>
   </tlLogic>
   <tlLogic id="1000099651" offset="0" programID="0" type="static">
      <phase duration="33.5577238538" state="GGrrrr"/>
      <phase duration="5.26353559773" state="yyrrrr"/>
      <phase duration="33.5577238538" state="rrGGrr"/>
      <phase duration="5.26353559773" state="rryyrr"/>
      <phase duration="33.5577238538" state="rrrrGG"/>
      <phase duration="5.26353559773" state="rrrryy"/>
   </tlLogic>
   <tlLogic id="1000099741" offset="0" programID="0" type="static">
      <phase duration="20.1103377027" state="GGrr"/>
      <phase duration="3.79634194246" state="yyrr"/>
      <phase duration="20.1103377027" state="rrGG"/>
      <phase duration="3.79634194246" state="rryy"/>
   </tlLogic>
   <tlLogic id="1012321567" offset="0" programID="0" type="static">
      <phase duration="21.9343543604" state="Gr"/>
      <phase duration="5.7256830343" state="yr"/>
      <phase duration="21.9343543604" state="rG"/>
      <phase duration="5.7256830343" state="ry"/>
   </tlLogic>
   <tlLogic id="1012321573" offset="0" programID="0" type="static">
      <phase duration="38.0425521105" state="Gr"/>
      <phase duration="6.44033666236" state="yr"/>
      <phase duration="38.0425521105" state="rG"/>
      <phase duration="6.44033666236" state="ry"/>
   </tlLogic>
   <tlLogic id="1012321580" offset="0" programID="0" type="static">
      <phase duration="13.1405769921" state="Gr"/>
      <phase duration="7.9973699409" state="yr"/>
      <phase duration="13.1405769921" state="rG"/>
      <phase duration="7.9973699409" state="ry"/>
   </tlLogic>
   <tlLogic id="1012326820" offset="0" programID="0" type="static">
      <phase duration="17.2466810899" state="G"/>
      <phase duration="5.12897867892" state="y"/>
   </tlLogic>
   <tlLogic id="1037290889" offset="0" programID="0" type="static">
      <phase duration="20.5269796577" state="GGrr"/>
      <phase duration="6.36217587503" state="yyrr"/>
      <phase duration="20.5269796577" state="rrGG"/>
      <phase duration="6.36217587503" state="rryy"/>
   </tlLogic>
   <tlLogic id="1040964333" offset="0" programID="0" type="static">
      <phase duration="19.3506278093" state="Gr"/>
      <phase duration="9.92966639795" state="yr"/>
      <phase duration="19.3506278093" state="rG"/>
      <phase duration="9.92966639795" state="ry"/>
   </tlLogic>
   <tlLogic id="1045044692" offset="0" programID="0" type="static">
      <phase duration="8.15678659348" state="Gr"/>
      <phase duration="3.41621893866" state="yr"/>
      <phase duration="8.15678659348" state="rG"/>
      <phase duration="3.41621893866" state="ry"/>
   </tlLogic>
   <tlLogic id="1045044750" offset="0" programID="0" type="static">
      <phase duration="17.2966256454" state="Gr"/>
      <phase duration="9.72370368681" state="yr"/>
      <phase duration="17.2966256454" state="rG"/>
      <phase duration="9.72370368681" state="ry"/>
   </tlLogic>
   <tlLogic id="1045044796" offset="0" programID="0" type="static">
      <phase duration="28.3433371146" state="Gr"/>
      <phase duration="5.46868401602" state="yr"/>
      <phase duration="28.3433371146" state="rG"/>
      <phase duration="5.46868401602" state="ry"/>
   </tlLogic>
   <tlLogic id="1149210260" offset="0" programID="0" type="static">
      <phase duration="19.9777139833" state="Gr"/>
      <phase duration="9.42834748359" state="yr"/>
      <phase duration="19.9777139833" state="rG"/>
      <phase duration="9.42834748359" state="ry"/>
   </tlLogic>
   <tlLogic id="1150667540" offset="0" programID="0" type="static">
      <phase duration="31.3944360038" state="G"/>
      <phase duration="7.36856090504" state="y"/>
   </tlLogic>
   <tlLogic id="1150667552" offset="0" programID="0" type="static">
      <phase duration="31.4014336696" state="Gr"/>
      <phase duration="5.23702399143" state="yr"/>
      <phase duration="31.4014336696" state="rG"/>
      <phase duration="5.23702399143" state="ry"/>
   </tlLogic>
   <tlLogic id="1150667558" offset="0" programID="0" type="static">
      <phase duration="13.0948853643" state="Gr"/>
      <phase duration="4.19630203067" state="yr"/>
      <phase duration="13.0948853643" state="rG"/>
      <phase duration="4.19630203067" state="ry"/>
   </tlLogic>
   <tlLogic id="1150667568" offset="0" programID="0" type="static"/>
   <tlLogic id="1150667586" offset="0" programID="0" type="static">
      <phase duration="12.7619086243" state="G"/>
      <phase duration="4.68157157656" state="y"/>
   </tlLogic>
   <tlLogic id="1150667604" offset="0" programID="0" type="static">
      <phase duration="23.0576195619" state="Gr"/>
      <phase duration="6.08393725395" state="yr"/>
      <phase duration="23.0576195619" state="rG"/>
      <phase duration="6.08393725395" state="ry"/>
   </tlLogic>
   <tlLogic id="1150667608" offset="0" programID="0" type="static">
      <phase duration="15.5698588318" state="Gr"/>
      <phase duration="8.80119691525" state="yr"/>
      <phase duration="15.5698588318" state="rG"/>
      <phase duration="8.80119691525" state="ry"/>
   </tlLogic>
   <tlLogic id="1150667618" offset="0" programID="0" type="static">
      <phase duration="21.2052463316" state="G"/>
      <phase duration="5.11986133991" state="y"/>
   </tlLogic>
   <tlLogic id="1156723779" offset="0" programID="0" type="static">
      <phase duration="32.5941408933" state="GGrrr"/>
      <phase duration="3.25955389028" state="yyrrr"/>
      <phase duration="32.5941408933" state="rrGrr"/>
      <phase duration="3.25955389028" state="rryrr"/>
      <phase duration="32.5941408933" state="rrrGG"/>
      <phase duration="3.25955389028" state="rrryy"/>
   </tlLogic>
   <tlLogic id="1156723834" offset="0" programID="0" type="static">
      <phase duration="29.9183061842" state="G"/>
      <phase duration="5.31429363132" state="y"/>
   </tlLogic>
   <tlLogic id="1156723839" offset="0" programID="0" type="static">
      <phase duration="14.9454723717" state="Gr"/>
      <phase duration="8.83932970629" state="yr"/>
      <phase duration="14.9454723717" state="rG"/>
      <phase duration="8.83932970629" state="ry"/>
   </tlLogic>
   <tlLogic id="1157698150" offset="0" programID="0" type="static">
      <phase duration="16.5794981917" state="G"/>
      <phase duration="5.87507649224" state="y"/>
   </tlLogic>
   <tlLogic id="1200892937" offset="0" programID="0" type="static">
      <phase duration="30.0360753609" state="G"/>
      <phase duration="5.60806977543" state="y"/>
   </tlLogic>
   <tlLogic id="1201745377" offset="0" programID="0" type="static">
      <phase duration="10.4114961824" state="G"/>
      <phase duration="6.55734590786" state="y"/>
   </tlLogic>
   <tlLogic id="1211136595" offset="0" programID="0" type="static">
      <phase duration="19.7180551016" state="G"/>
      <phase duration="7.50511768525" state="y"/>
   </tlLogic>
   <tlLogic id="1220020505" offset="0" programID="0" type="static">
      <phase duration="13.8722488384" state="G"/>
      <phase duration="4.16967212755" state="y"/>
   </tlLogic>
   <tlLogic id="1220020545" offset="0" programID="0" type="static">
      <phase duration="32.9725710648" state="GGrrr"/>
      <phase duration="7.66988135452" state="yyrrr"/>
      <phase duration="32.9725710648" state="rrGrr"/>
      <phase duration="7.66988135452" state="rryrr"/>
      <phase duration="32.9725710648" state="rrrGG"/>
      <phase duration="7.66988135452" state="rrryy"/>
   </tlLogic>
   <tlLogic id="1220020592" offset="0" programID="0" type="static">
      <phase duration="35.2155482739" state="Gr"/>
      <phase duration="7.71551980103" state="yr"/>
      <phase duration="35.2155482739" state="rG"/>
      <phase duration="7.71551980103" state="ry"/>
   </tlLogic>
   <tlLogic id="1220020607" offset="0" programID="0" type="static">
      <phase duration="5.27359789972" state="GGrr"/>
      <phase duration="6.31001185972" state="yyrr"/>
      <phase duration="5.27359789972" state="rrGG"/>
      <phase duration="6.31001185972" state="rryy"/>
   </tlLogic>
   <tlLogic id="1229522502" offset="0" programID="0" type="static">
      <phase duration="17.4714233481" state="Gr"/>
      <phase duration="3.45960150048" state="yr"/>
      <phase duration="17.4714233481" state="rG"/>
      <phase duration="3.45960150048" state="ry"/>
   </tlLogic>
   <tlLogic id="1229522509" offset="0" programID="0" type="static">
      <phase duration="4.7435809274" state="G"/>
      <phase duration="6.30506507705" state="y"/>
   </tlLogic>
   <tlLogic id="1229522552" offset="0" programID="0" type="static">
      <phase duration="14.4872659832" state="G"/>
      <phase duration="3.83973566637" state="y"/>
   </tlLogic>
   <tlLogic id="1252285105" offset="0" programID="0" type="static">
      <phase duration="5.566441945" state="G"/>
      <phase duration="4.33553059465" state="y"/>
   </tlLogic>
   <tlLogic id="1252285137" offset="0" programID="0" type="static">
      <phase duration="16.8853670844" state="Gr"/>
      <phase duration="6.98269333534" state="yr"/>
      <phase duration="16.8853670844" state="rG"/>
      <phase duration="6.98269333534" state="ry"/>
   </tlLogic>
   <tlLogic id="1252285138" offset="0" programID="0" type="static">
      <phase duration="34.8344805061" state="G"/>
      <phase duration="6.77430027945" state="y"/>
   </tlLogic>
   <tlLogic id="1258258237" offset="0" programID="0" type="static">
      <phase duration="13.0719143409" state="GGr"/>
      <phase duration="4.03267055916" state="yyr"/>
      <phase duration="13.0719143409" state="rrG"/>
      <phase duration="4.03267055916" state="rry"/>
   </tlLogic>
   <tlLogic id="1271504738" offset="0" programID="0" type="static">
      <phase duration="26.8207872932" state="Gr"/>
      <phase duration="3.66145505909" state="yr"/>
      <phase duration="26.8207872932" state="rG"/>
      <phase duration="3.66145505909" state="ry"/>
   </tlLogic>
   <tlLogic id="1271504750" offset="0" programID="0" type="static">
      <phase duration="19.8529174832" state="G"/>
      <phase duration="8.27774772347" state="y"/>
   </tlLogic>
   <tlLogic id="1271504755" offset="0" programID="0" type="static">
      <phase duration="23.337122577" state="GGrrr"/>
      <phase duration="7.45731632631" state="yyrrr"/>
      <phase duration="23.337122577" state="rrGrr"/>
      <phase duration="7.45731632631" state="rryrr"/>
      <phase duration="23.337122577" state="rrrGG"/>
      <phase duration="7.45731632631" state="rrryy"/>
   </tlLogic>
   <tlLogic id="1271504756" offset="0" programID="0" type="static">
      <phase duration="27.4981603329" state="Gr"/>
      <phase duration="2.02621679805" state="yr"/>
      <phase duration="27.4981603329" state="rG"/>
      <phase duration="2.02621679805" state="ry"/>
   </tlLogic>
   <tlLogic id="1271504757" offset="0" programID="0" type="static">
      <phase duration="17.69567322" state="GGrrr"/>
      <phase duration="5.60067578708" state="yyrrr"/>
      <phase duration="17.69567322" state="rrGrr"/>
      <phase duration="5.60067578708" state="rryrr"/>
      <phase duration="17.69567322" state="rrrGG"/>
      <phase duration="5.60067578708" state="rrryy"/>
   </tlLogic>
   <tlLogic id="1271504758" offset="0" programID="0" type="static">
      <phase duration="20.1154687256" state="G"/>
      <phase duration="6.10878840036" state="y"/>
   </tlLogic>
   <tlLogic id="1271504762" offset="0" programID="0" type="static">
      <phase duration="31.8772569905" state="G"/>
      <phase duration="9.28594851975" state="y"/>
   </tlLogic>
   <tlLogic id="1271504767" offset="0" programID="0" type="static">
      <phase duration="9.50850430189" state="G"/>
      <phase duration="5.12161461492" state="y"/>
   </tlLogic>
   <tlLogic id="1271504768" offset="0" programID="0" type="static">
      <phase duration="10.2533019062" state="Gr"/>
      <phase duration="7.32373041264" state="yr"/>
      <phase duration="10.2533019062" state="rG"/>
      <phase duration="7.32373041264" state="ry"/>
   </tlLogic>
   <tlLogic id="1271504770" offset="0" programID="0" type="static">
      <phase duration="8.49985507363" state="Gr"/>
      <phase duration="4.65831994902" state="yr"/>
      <phase duration="8.49985507363" state="rG"/>
      <phase duration="4.65831994902" state="ry"/>
   </tlLogic>
   <tlLogic id="1271504774" offset="0" programID="0" type="static">
      <phase duration="33.5225425675" state="G"/>
      <phase duration="8.82946430926" state="y"/>
   </tlLogic>
   <tlLogic id="1271504775" offset="0" programID="0" type="static">
      <phase duration="27.0777100529" state="Gr"/>
      <phase duration="9.55107523972" state="yr"/>
      <phase duration="27.0777100529" state="rG"/>
      <phase duration="9.55107523972" state="ry"/>
   </tlLogic>
   <tlLogic id="1271504795" offset="0" programID="0" type="static">
      <phase duration="15.0360248599" state="G"/>
      <phase duration="8.88345372816" state="y"/>
   </tlLogic>
   <tlLogic id="1271504804" offset="0" programID="0" type="static">
      <phase duration="21.5394116734" state="Gr"/>
      <phase duration="5.85948361079" state="yr"/>
      <phase duration="21.5394116734" state="rG"/>
      <phase duration="5.85948361079" state="ry"/>
   </tlLogic>
   <tlLogic id="1271504815" offset="0" programID="0" type="static">
      <phase duration="9.41617168694" state="Gr"/>
      <phase duration="6.36271168639" state="yr"/>
      <phase duration="9.41617168694" state="rG"/>
      <phase duration="6.36271168639" state="ry"/>
   </tlLogic>
   <tlLogic id="1271504817" offset="0" programID="0" type="static">
      <phase duration="10.0103522672" state="G"/>
      <phase duration="7.88739253025" state="y"/>
   </tlLogic>
   <tlLogic id="1271504819" offset="0" programID="0" type="static">
      <phase duration="15.3635729548" state="Gr"/>
      <phase duration="6.23892677169" state="yr"/>
      <phase duration="15.3635729548" state="rG"/>
      <phase duration="6.23892677169" state="ry"/>
   </tlLogic>
   <tlLogic id="1271504822" offset="0" programID="0" type="static">
      <phase duration="12.0101190732" state="G"/>
      <phase duration="7.29779274775" state="y"/>
   </tlLogic>
   <tlLogic id="1271504824" offset="0" programID="0" type="static">
      <phase duration="14.2098466346" state="G"/>
      <phase duration="4.91314865359" state="y"/>
   </tlLogic>
   <tlLogic id="1271504829" offset="0" programID="0" type="static">
      <phase duration="5.70702747902" state="Gr"/>
      <phase duration="6.37201930917" state="yr"/>
      <phase duration="5.70702747902" state="rG"/>
      <phase duration="6.37201930917" state="ry"/>
   </tlLogic>
   <tlLogic id="1271504830" offset="0" programID="0" type="static">
      <phase duration="33.433341957" state="GGrrr"/>
      <phase duration="6.7613508437" state="yyrrr"/>
      <phase duration="33.433341957" state="rrGrr"/>
      <phase duration="6.7613508437" state="rryrr"/>
      <phase duration="33.433341957" state="rrrGG"/>
      <phase duration="6.7613508437" state="rrryy"/>
   </tlLogic>
   <tlLogic id="1271504841" offset="0" programID="0" type="static">
      <phase duration="25.9006117947" state="G"/>
      <phase duration="3.81589903107" state="y"/>
   </tlLogic>
   <tlLogic id="1271504845" offset="0" programID="0" type="static">
      <phase duration="36.3458833748" state="G"/>
      <phase duration="7.37942429322" state="y"/>
   </tlLogic>
   <tlLogic id="1271504849" offset="0" programID="0" type="static">
      <phase duration="10.0534518066" state="GGrrr"/>
      <phase duration="8.04504883052" state="yyrrr"/>
      <phase duration="10.0534518066" state="rrGrr"/>
      <phase duration="8.04504883052" state="rryrr"/>
      <phase duration="10.0534518066" state="rrrGG"/>
      <phase duration="8.04504883052" state="rrryy"/>
   </tlLogic>
   <tlLogic id="1271504852" offset="0" programID="0" type="static">
      <phase duration="27.0299983145" state="G"/>
      <phase duration="5.70495911402" state="y"/>
   </tlLogic>
   <tlLogic id="1271504861" offset="0" programID="0" type="static">
      <phase duration="18.5868615684" state="G"/>
      <phase duration="5.94745682159" state="y"/>
   </tlLogic>
   <tlLogic id="1271504863" offset="0" programID="0" type="static">
      <phase duration="8.34019617657" state="G"/>
      <phase duration="7.29847151935" state="y"/>
   </tlLogic>
   <tlLogic id="1271504864" offset="0" programID="0" type="static">
      <phase duration="25.4666931377" state="G"/>
      <phase duration="4.51809883166" state="y"/>
   </tlLogic>
   <tlLogic id="1271504868" offset="0" programID="0" type="static">
      <phase duration="14.6947499771" state="Gr"/>
      <phase duration="2.87917091441" state="yr"/>
      <phase duration="14.6947499771" state="rG"/>
      <phase duration="2.87917091441" state="ry"/>
   </tlLogic>
   <tlLogic id="1271504872" offset="0" programID="0" type="static">
      <phase duration="9.06781198733" state="G"/>
      <phase duration="6.99917145554" state="y"/>
   </tlLogic>
   <tlLogic id="1271504875" offset="0" programID="0" type="static">
      <phase duration="25.0599378174" state="G"/>
      <phase duration="8.21606072883" state="y"/>
   </tlLogic>
   <tlLogic id="1271504878" offset="0" programID="0" type="static">
      <phase duration="32.8369371794" state="G"/>
      <phase duration="9.62984943862" state="y"/>
   </tlLogic>
   <tlLogic id="1271504881" offset="0" programID="0" type="static">
      <phase duration="37.7777977622" state="GGrrr"/>
      <phase duration="9.07284814884" state="yyrrr"/>
      <phase duration="37.7777977622" state="rrGrr"/>
      <phase duration="9.07284814884" state="rryrr"/>
      <phase duration="37.7777977622" state="rrrGG"/>
      <phase duration="9.07284814884" state="rrryy"/>
   </tlLogic>
   <tlLogic id="1271504884" offset="0" programID="0" type="static">
      <phase duration="5.65485824249" state="G"/>
      <phase duration="2.130259839" state="y"/>
   </tlLogic>
   <tlLogic id="1271504887" offset="0" programID="0" type="static">
      <phase duration="21.5929286772" state="G"/>
      <phase duration="9.23533224877" state="y"/>
   </tlLogic>
   <tlLogic id="1271504891" offset="0" programID="0" type="static">
      <phase duration="18.6013597623" state="G"/>
      <phase duration="3.24239180711" state="y"/>
   </tlLogic>
   <tlLogic id="1271504894" offset="0" programID="0" type="static">
      <phase duration="27.2359624771" state="G"/>
      <phase duration="5.85236684257" state="y"/>
   </tlLogic>
   <tlLogic id="1271504898" offset="0" programID="0" type="static">
      <phase duration="23.2889961291" state="Gr"/>
      <phase duration="5.35617197068" state="yr"/>
      <phase duration="23.2889961291" state="rG"/>
      <phase duration="5.35617197068" state="ry"/>
   </tlLogic>
   <tlLogic id="1271504899" offset="0" programID="0" type="static">
      <phase duration="24.3528433317" state="G"/>
      <phase duration="4.35010733941" state="y"/>
   </tlLogic>
   <tlLogic id="1271504901" offset="0" programID="0" type="static">
      <phase duration="7.14312344012" state="GGrrr"/>
      <phase duration="8.59085880433" state="yyrrr"/>
      <phase duration="7.14312344012" state="rrGrr"/>
      <phase duration="8.59085880433" state="rryrr"/>
      <phase duration="7.14312344012" state="rrrGG"/>
      <phase duration="8.59085880433" state="rrryy"/>
   </tlLogic>
   <tlLogic id="1271504902" offset="0" programID="0" type="static">
      <phase duration="15.7339106196" state="Gr"/>
      <phase duration="5.89060528739" state="yr"/>
      <phase duration="15.7339106196" state="rG"/>
      <phase duration="5.89060528739" state="ry"/>
   </tlLogic>
   <tlLogic id="1271504908" offset="0" programID="0" type="static">
      <phase duration="13.8165431571" state="G"/>
      <phase duration="7.84822226247" state="y"/>
   </tlLogic>
   <tlLogic id="1271504914" offset="0" programID="0" type="static">
      <phase duration="30.8042137432" state="G"/>
      <phase duration="5.03277573133" state="y"/>
   </tlLogic>
   <tlLogic id="1271504918" offset="0" programID="0" type="static">
      <phase duration="23.4938281884" state="G"/>
      <phase duration="3.02374499445" state="y"/>
   </tlLogic>
   <tlLogic id="1299369678" offset="0" programID="0" type="static">
      <phase duration="22.4003149789" state="G"/>
      <phase duration="1.5830024409" state="y"/>
   </tlLogic>
   <tlLogic id="1299369679" offset="0" programID="0" type="static">
      <phase duration="21.267766413" state="G"/>
      <phase duration="2.76063286007" state="y"/>
   </tlLogic>
   <tlLogic id="1299369689" offset="0" programID="0" type="static">
      <phase duration="25.0988701338" state="GGrrr"/>
      <phase duration="6.48448146004" state="yyrrr"/>
      <phase duration="25.0988701338" state="rrGrr"/>
      <phase duration="6.48448146004" state="rryrr"/>
      <phase duration="25.0988701338" state="rrrGG"/>
      <phase duration="6.48448146004" state="rrryy"/>
   </tlLogic>
   <tlLogic id="1299369691" offset="0" programID="0" type="static">
      <phase duration="14.8180659287" state="Gr"/>
      <phase duration="6.42945838127" state="yr"/>
      <phase duration="14.8180659287" state="rG"/>
      <phase duration="6.42945838127" state="ry"/>
   </tlLogic>
   <tlLogic id="1299369697" offset="0" programID="0" type="static">
      <phase duration="30.8959273816" state="G"/>
      <phase duration="3.23367807658" state="y"/>
   </tlLogic>
   <tlLogic id="1299369699" offset="0" programID="0" type="static">
      <phase duration="27.2702916035" state="G"/>
      <phase duration="3.24818149679" state="y"/>
   </tlLogic>
   <tlLogic id="1312440651" offset="0" programID="0" type="static">
      <phase duration="20.2896092971" state="G"/>
      <phase duration="3.51006997214" state="y"/>
   </tlLogic>
   <tlLogic id="1312440715" offset="0" programID="0" type="static">
      <phase duration="8.90128717776" state="Gr"/>
      <phase duration="5.53305948728" state="yr"/>
      <phase duration="8.90128717776" state="rG"/>
      <phase duration="5.53305948728" state="ry"/>
   </tlLogic>
   <tlLogic id="1353566368" offset="0" programID="0" type="static">
      <phase duration="12.8652571036" state="G"/>
      <phase duration="6.7287221951" state="y"/>
   </tlLogic>
   <tlLogic id="1366801185" offset="0" programID="0" type="static">
      <phase duration="23.0613737545" state="G"/>
      <phase duration="8.30401509382" state="y"/>
   </tlLogic>
   <tlLogic id="1366801191" offset="0" programID="0" type="static">
      <phase duration="12.1557323408" state="G"/>
      <phase duration="2.19817103582" state="y"/>
   </tlLogic>
   <tlLogic id="1366801200" offset="0" programID="0" type="static">
      <phase duration="4.78117658479" state="Gr"/>
      <phase duration="3.88992442299" state="yr"/>
      <phase duration="4.78117658479" state="rG"/>
      <phase duration="3.88992442299" state="ry"/>
   </tlLogic>
   <tlLogic id="1366801204" offset="0" programID="0" type="static">
      <phase duration="18.5430137899" state="G"/>
      <phase duration="4.4069079364" state="y"/>
   </tlLogic>
   <tlLogic id="1366801267" offset="0" programID="0" type="static">
      <phase duration="17.5441342176" state="Grr"/>
      <phase duration="4.26226363637" state="yrr"/>
      <phase duration="17.5441342176" state="rGr"/>
      <phase duration="4.26226363637" state="ryr"/>
      <phase duration="17.5441342176" state="rrG"/>
      <phase duration="4.26226363637" state="rry"/>
   </tlLogic>
   <tlLogic id="1492679675" offset="0" programID="0" type="static">
      <phase duration="15.901762352" state="Gr"/>
      <phase duration="5.71121138586" state="yr"/>
      <phase duration="15.901762352" state="rG"/>
      <phase duration="5.71121138586" state="ry"/>
   </tlLogic>
   <tlLogic id="1492679681" offset="0" programID="0" type="static">
      <phase duration="25.4611954423" state="G"/>
      <phase duration="7.59713489957" state="y"/>
   </tlLogic>
   <tlLogic id="1492679714" offset="0" programID="0" type="static">
      <phase duration="28.7673453271" state="Gr"/>
      <phase duration="5.29806430728" state="yr"/>
      <phase duration="28.7673453271" state="rG"/>
      <phase duration="5.29806430728" state="ry"/>
   </tlLogic>
   <tlLogic id="1492679718" offset="0" programID="0" type="static"/>
   <tlLogic id="1492679731" offset="0" programID="0" type="static">
      <phase duration="21.414661642" state="Gr"/>
      <phase duration="6.77265149406" state="yr"/>
      <phase duration="21.414661642" state="rG"/>
      <phase duration="6.77265149406" state="ry"/>
   </tlLogic>
   <tlLogic id="1492679733" offset="0" programID="0" type="static">
      <phase duration="22.7809119692" state="Gr"/>
      <phase duration="3.15005015628" state="yr"/>
      <phase duration="22.7809119692" state="rG"/>
      <phase duration="3.15005015628" state="ry"/>
   </tlLogic>
   <tlLogic id="1492679740" offset="0" programID="0" type="static">
      <phase duration="16.9348974461" state="G"/>
      <phase duration="7.02041270331" state="y"/>
   </tlLogic>
   <tlLogic id="1492679741" offset="0" programID="0" type="static">
      <phase duration="24.8027764767" state="G"/>
      <phase duration="6.11382300191" state="y"/>
   </tlLogic>
   <tlLogic id="1492679747" offset="0" programID="0" type="static">
      <phase duration="25.8005781379" state="Gr"/>
      <phase duration="3.74503222789" state="yr"/>
      <phase duration="25.8005781379" state="rG"/>
      <phase duration="3.74503222789" state="ry"/>
   </tlLogic>
   <tlLogic id="1492679749" offset="0" programID="0" type="static">
      <phase duration="32.5446599271" state="GGrrr"/>
      <phase duration="4.09938877012" state="yyrrr"/>
      <phase duration="32.5446599271" state="rrGGr"/>
      <phase duration="4.09938877012" state="rryyr"/>
      <phase duration="32.5446599271" state="rrrrG"/>
      <phase duration="4.09938877012" state="rrrry"/>
   </tlLogic>
   <tlLogic id="1492679755" offset="0" programID="0" type="static">
      <phase duration="7.98732708779" state="G"/>
      <phase duration="6.82301040513" state="y"/>
   </tlLogic>
   <tlLogic id="1492729097" offset="0" programID="0" type="static">
      <phase duration="35.9345131039" state="Gr"/>
      <phase duration="7.62936709346" state="yr"/>
      <phase duration="35.9345131039" state="rG"/>
      <phase duration="7.62936709346" state="ry"/>
   </tlLogic>
   <tlLogic id="1492729114" offset="0" programID="0" type="static">
      <phase duration="19.8163939681" state="Gr"/>
      <phase duration="8.8652730216" state="yr"/>
      <phase duration="19.8163939681" state="rG"/>
      <phase duration="8.8652730216" state="ry"/>
   </tlLogic>
   <tlLogic id="1492802030" offset="0" programID="0" type="static">
      <phase duration="28.7884231506" state="GGrr"/>
      <phase duration="6.67317860444" state="yyrr"/>
      <phase duration="28.7884231506" state="rrGG"/>
      <phase duration="6.67317860444" state="rryy"/>
   </tlLogic>
   <tlLogic id="1492802033" offset="0" programID="0" type="static">
      <phase duration="25.7109459666" state="GGrrr"/>
      <phase duration="4.31271173767" state="yyrrr"/>
      <phase duration="25.7109459666" state="rrGrr"/>
      <phase duration="4.31271173767" state="rryrr"/>
      <phase duration="25.7109459666" state="rrrGG"/>
      <phase duration="4.31271173767" state="rrryy"/>
   </tlLogic>
   <tlLogic id="1492802068" offset="0" programID="0" type="static">
      <phase duration="8.6035054284" state="Gr"/>
      <phase duration="4.80081652169" state="yr"/>
      <phase duration="8.6035054284" state="rG"/>
      <phase duration="4.80081652169" state="ry"/>
   </tlLogic>
   <tlLogic id="1492802069" offset="0" programID="0" type="static">
      <phase duration="24.4756570349" state="G"/>
      <phase duration="2.72130758362" state="y"/>
   </tlLogic>
   <tlLogic id="1492802079" offset="0" programID="0" type="static">
      <phase duration="27.687898415" state="Gr"/>
      <phase duration="5.32625895656" state="yr"/>
      <phase duration="27.687898415" state="rG"/>
      <phase duration="5.32625895656" state="ry"/>
   </tlLogic>
   <tlLogic id="1492802092" offset="0" programID="0" type="static">
      <phase duration="16.8963191933" state="G"/>
      <phase duration="3.45145930835" state="y"/>
   </tlLogic>
   <tlLogic id="1492802093" offset="0" programID="0" type="static">
      <phase duration="32.8334909349" state="GGrrr"/>
      <phase duration="8.45647818322" state="yyrrr"/>
      <phase duration="32.8334909349" state="rrGGG"/>
      <phase duration="8.45647818322" state="rryyy"/>
   </tlLogic>
   <tlLogic id="1492802133" offset="0" programID="0" type="static">
      <phase duration="11.9980356141" state="Grr"/>