<?xml version="1.0" ?>
<tlLogics>
   <tlLogic id="1000099544" offset="0" programID="0" type="static">
      <phase duration="12.0455023124" state="GGrrr"/>
      <phase duration="4.03699956593" state="yyrrr"/>
      <phase duration="12.0455023124" state="rrGGr"/>
      <phase duration="4.03699956593" state="rryyr"/>
      <phase duration="12.0455023124" state="rrrrG"/>
      <phase duration="4.03699956593" state="rrrry"/>
   </tlLogic>
   <tlLogic id="1000099551" offset="0" programID="0" type="static">
      <phase duration="12.5075390164" state="G"/>
      <phase duration="9.06263258867" state="y"/>
   </tlLogic>
   <tlLogic id="1000099591" offset="0" programID="0" type="static">
      <phase duration="18.456718618" state="GGrr"/>
      <phase duration="8.72781042974" state="yyrr"/>
      <phase duration="18.456718618" state="rrGG"/>
      <phase duration="8.72781042974" state="rryy"/>
   </tlLogic>
   <tlLogic id="1000099607" offset="0" programID="0" type="static">
      <phase duration="18.684398549" state="GGr"/>
      <phase duration="6.06621597838" state="yyr"/>
      <phase duration="18.684398549" state="rrG"/>
      <phase duration="6.06621597838" state="rry"/>
   </tlLogic>
   <tlLogic id="1000099651" offset="0" programID="0" type="static">
      <phase duration="17.1953070644" state="GGrrrr"/>
      <phase duration="8.45248516469" state="yyrrrr"/>
      <phase duration="17.1953070644" state="rrGGrr"/>
      <phase duration="8.45248516469" state="rryyrr"/>
      <phase duration="17.1953070644" state="rrrrGG"/>
      <phase duration="8.45248516469" state="rrrryy"/>
   </tlLogic>
   <tlLogic id="1012321580" offset="0" programID="0" type="static">
      <phase duration="24.7086171668" state="Gr"/>
      <phase duration="7.23592402769" state="yr"/>
      <phase duration="24.7086171668" state="rG"/>
      <phase duration="7.23592402769" state="ry"/>
   </tlLogic>
   <tlLogic id="1012326820" offset="0" programID="0" type="static">
      <phase duration="26.594967963" state="G"/>
      <phase duration="5.18729151244" state="y"/>
   </tlLogic>
   <tlLogic id="1028832186" offset="0" programID="0" type="static"/>
   <tlLogic id="1028832536" offset="0" programID="0" type="static"/>
   <tlLogic id="1037290808" offset="0" programID="0" type="static">
      <phase duration="18.7921331729" state="GGGrrrrrr"/>
      <phase duration="7.93136685161" state="yyyrrrrrr"/>
      <phase duration="18.7921331729" state="rrrGGGrrr"/>
      <phase duration="7.93136685161" state="rrryyyrrr"/>
      <phase duration="18.7921331729" state="rrrrrrGGG"/>
      <phase duration="7.93136685161" state="rrrrrryyy"/>
   </tlLogic>
   <tlLogic id="1037290915" offset="0" programID="0" type="static">
      <phase duration="31.5107719981" state="GGrrr"/>
      <phase duration="2.98646469873" state="yyrrr"/>
      <phase duration="31.5107719981" state="rrGGG"/>
      <phase duration="2.98646469873" state="rryyy"/>
   </tlLogic>
   <tlLogic id="1037290944" offset="0" programID="0" type="static">
      <phase duration="13.5989592659" state="G"/>
      <phase duration="8.44058901747" state="y"/>
   </tlLogic>
   <tlLogic id="1045044692" offset="0" programID="0" type="static">
      <phase duration="12.144342684" state="Gr"/>
      <phase duration="6.00565907487" state="yr"/>
      <phase duration="12.144342684" state="rG"/>
      <phase duration="6.00565907487" state="ry"/>
   </tlLogic>
   <tlLogic id="1045044715" offset="0" programID="0" type="static">
      <phase duration="22.2666867811" state="Gr"/>
      <phase duration="6.60383307563" state="yr"/>
      <phase duration="22.2666867811" state="rG"/>
      <phase duration="6.60383307563" state="ry"/>
   </tlLogic>
   <tlLogic id="1045044863" offset="0" programID="0" type="static">
      <phase duration="13.0739607185" state="G"/>
      <phase duration="8.950657684" state="y"/>
   </tlLogic>
   <tlLogic id="1062771990" offset="0" programID="0" type="static">
      <phase duration="14.6293656291" state="G"/>
      <phase duration="3.3874295533" state="y"/>
   </tlLogic>
   <tlLogic id="1109589944" offset="0" programID="0" type="static">
      <phase duration="10.6590840149" state="GGGrrrrrr"/>
      <phase duration="7.80206009869" state="yyyrrrrrr"/>
      <phase duration="10.6590840149" state="rrrGGGrrr"/>
      <phase duration="7.80206009869" state="rrryyyrrr"/>
      <phase duration="10.6590840149" state="rrrrrrGGG"/>
      <phase duration="7.80206009869" state="rrrrrryyy"/>
   </tlLogic>
   <tlLogic id="1109589987" offset="0" programID="0" type="static">
      <phase duration="20.5005740987" state="GGrr"/>
      <phase duration="3.65310791447" state="yyrr"/>
      <phase duration="20.5005740987" state="rrGG"/>
      <phase duration="3.65310791447" state="rryy"/>
   </tlLogic>
   <tlLogic id="1125127500" offset="0" programID="0" type="static">
      <phase duration="25.9794165955" state="GG"/>
      <phase duration="9.0134301651" state="yy"/>
   </tlLogic>
   <tlLogic id="1149210260" offset="0" programID="0" type="static">
      <phase duration="9.48448016465" state="Gr"/>
      <phase duration="8.32253210344" state="yr"/>
      <phase duration="9.48448016465" state="rG"/>
      <phase duration="8.32253210344" state="ry"/>
   </tlLogic>
   <tlLogic id="1150667552" offset="0" programID="0" type="static">
      <phase duration="20.6852149155" state="Gr"/>
      <phase duration="5.39008162296" state="yr"/>
      <phase duration="20.6852149155" state="rG"/>
      <phase duration="5.39008162296" state="ry"/>
   </tlLogic>
   <tlLogic id="1150667558" offset="0" programID="0" type="static">
      <phase duration="13.3196810394" state="Gr"/>
      <phase duration="4.42538343655" state="yr"/>
      <phase duration="13.3196810394" state="rG"/>
      <phase duration="4.42538343655" state="ry"/>
   </tlLogic>
   <tlLogic id="1150667568" offset="0" programID="0" type="static"/>
   <tlLogic id="1150667586" offset="0" programID="0" type="static">
      <phase duration="19.3123156558" state="G"/>
      <phase duration="6.63206856809" state="y"/>
   </tlLogic>
   <tlLogic id="1150667603" offset="0" programID="0" type="static">
      <phase duration="23.9222277883" state="Gr"/>
      <phase duration="7.05356883779" state="yr"/>
      <phase duration="23.9222277883" state="rG"/>
      <phase duration="7.05356883779" state="ry"/>
   </tlLogic>
   <tlLogic id="1150667604" offset="0" programID="0" type="static">
      <phase duration="32.2745428537" state="Gr"/>
      <phase duration="4.81484772346" state="yr"/>
      <phase duration="32.2745428537" state="rG"/>
      <phase duration="4.81484772346" state="ry"/>
   </tlLogic>
   <tlLogic id="1150667608" offset="0" programID="0" type="static">
      <phase duration="8.63765733292" state="Gr"/>
      <phase duration="4.41608757135" state="yr"/>
      <phase duration="8.63765733292" state="rG"/>
      <phase duration="4.41608757135" state="ry"/>
   </tlLogic>
   <tlLogic id="1150667618" offset="0" programID="0" type="static">
      <phase duration="27.957426124" state="G"/>
      <phase duration="3.27179605712" state="y"/>
   </tlLogic>
   <tlLogic id="1156723779" offset="0" programID="0" type="static">
      <phase duration="16.6568708863" state="GGrrr"/>
      <phase duration="3.45653635262" state="yyrrr"/>
      <phase duration="16.6568708863" state="rrGrr"/>
      <phase duration="3.45653635262" state="rryrr"/>
      <phase duration="16.6568708863" state="rrrGG"/>
      <phase duration="3.45653635262" state="rrryy"/>
   </tlLogic>
   <tlLogic id="1200892960" offset="0" programID="0" type="static">
      <phase duration="26.0757728173" state="Gr"/>
      <phase duration="7.51987125614" state="yr"/>
      <phase duration="26.0757728173" state="rG"/>
      <phase duration="7.51987125614" state="ry"/>
   </tlLogic>
   <tlLogic id="1201745377" offset="0" programID="0" type="static">
      <phase duration="27.3775326901" state="G"/>
      <phase duration="7.82440219982" state="y"/>
   </tlLogic>
   <tlLogic id="1201745399" offset="0" programID="0" type="static"/>
   <tlLogic id="1211136497" offset="0" programID="0" type="static">
      <phase duration="19.5189333373" state="GGrr"/>
      <phase duration="8.10318171151" state="yyrr"/>
      <phase duration="19.5189333373" state="rrGG"/>
      <phase duration="8.10318171151" state="rryy"/>
   </tlLogic>
   <tlLogic id="1211136595" offset="0" programID="0" type="static">
      <phase duration="8.52709849011" state="G"/>
      <phase duration="3.36214132129" state="y"/>
   </tlLogic>
   <tlLogic id="1211136870" offset="0" programID="0" type="static">
      <phase duration="30.4373927364" state="GGrr"/>
      <phase duration="9.50043242435" state="yyrr"/>
      <phase duration="30.4373927364" state="rrGG"/>
      <phase duration="9.50043242435" state="rryy"/>
   </tlLogic>
   <tlLogic id="1220020505" offset="0" programID="0" type="static">
      <phase duration="26.0194151758" state="G"/>
      <phase duration="8.96444108778" state="y"/>
   </tlLogic>
   <tlLogic id="1220020656" offset="0" programID="0" type="static">
      <phase duration="16.8230152869" state="GGrr"/>
      <phase duration="3.9623255936" state="yyrr"/>
      <phase duration="16.8230152869" state="rrGG"/>
      <phase duration="3.9623255936" state="rryy"/>
   </tlLogic>
   <tlLogic id="1220020673" offset="0" programID="0" type="static">
      <phase duration="34.2549048739" state="GGGrrrrrr"/>
      <phase duration="7.85258042828" state="yyyrrrrrr"/>
      <phase duration="34.2549048739" state="rrrGGGrrr"/>
      <phase duration="7.85258042828" state="rrryyyrrr"/>
      <phase duration="34.2549048739" state="rrrrrrGGG"/>
      <phase duration="7.85258042828" state="rrrrrryyy"/>
   </tlLogic>
   <tlLogic id="1229522462" offset="0" programID="0" type="static">
      <phase duration="8.86468261453" state="G"/>
      <phase duration="4.83247419007" state="y"/>
   </tlLogic>
   <tlLogic id="1229522502" offset="0" programID="0" type="static">
      <phase duration="24.8527923808" state="Gr"/>
      <phase duration="3.99768521053" state="yr"/>
      <phase duration="24.8527923808" state="rG"/>
      <phase duration="3.99768521053" state="ry"/>
   </tlLogic>
   <tlLogic id="1229522509" offset="0" programID="0" type="static">
      <phase duration="18.8659151095" state="G"/>
      <phase duration="7.07831265832" state="y"/>
   </tlLogic>
   <tlLogic id="1229522554" offset="0" programID="0" type="static">
      <phase duration="18.3310163019" state="G"/>
      <phase duration="4.0888627332" state="y"/>
   </tlLogic>
   <tlLogic id="1252285082" offset="0" programID="0" type="static">
      <phase duration="26.3627937306" state="G"/>
      <phase duration="4.65341581349" state="y"/>
   </tlLogic>
   <tlLogic id="1252285085" offset="0" programID="0" type="static">
      <phase duration="29.1594648858" state="Gr"/>
      <phase duration="6.46287669164" state="yr"/>
      <phase duration="29.1594648858" state="rG"/>
      <phase duration="6.46287669164" state="ry"/>
   </tlLogic>
   <tlLogic id="1252285092" offset="0" programID="0" type="static">
      <phase duration="18.7278367536" state="G"/>
      <phase duration="7.65609219306" state="y"/>
   </tlLogic>
   <tlLogic id="1252285107" offset="0" programID="0" type="static">
      <phase duration="21.6941652536" state="G"/>
      <phase duration="5.69073654966" state="y"/>
   </tlLogic>
   <tlLogic id="1252285133" offset="0" programID="0" type="static">
      <phase duration="20.8098776678" state="Gr"/>
      <phase duration="5.52225864811" state="yr"/>
      <phase duration="20.8098776678" state="rG"/>
      <phase duration="5.52225864811" state="ry"/>
   </tlLogic>
   <tlLogic id="1252285137" offset="0" programID="0" type="static">
      <phase duration="23.0351974078" state="Gr"/>
      <phase duration="7.02029047985" state="yr"/>
      <phase duration="23.0351974078" state="rG"/>
      <phase duration="7.02029047985" state="ry"/>
   </tlLogic>
   <tlLogic id="1252285138" offset="0" programID="0" type="static">
      <phase duration="21.3536056212" state="G"/>
      <phase duration="6.4512595188" state="y"/>
   </tlLogic>
   <tlLogic id="1252285140" offset="0" programID="0" type="static">
      <phase duration="38.0031256933" state="Gr"/>
      <phase duration="5.57523359464" state="yr"/>
      <phase duration="38.0031256933" state="rG"/>
      <phase duration="5.57523359464" state="ry"/>
   </tlLogic>
   <tlLogic id="1271504747" offset="0" programID="0" type="static">
      <phase duration="33.5544691724" state="Gr"/>
      <phase duration="8.20157962765" state="yr"/>
      <phase duration="33.5544691724" state="rG"/>
      <phase duration="8.20157962765" state="ry"/>
   </tlLogic>
   <tlLogic id="1271504748" offset="0" programID="0" type="static">
      <phase duration="16.2008233153" state="Gr"/>
      <phase duration="3.76296734954" state="yr"/>
      <phase duration="16.2008233153" state="rG"/>
      <phase duration="3.76296734954" state="ry"/>
   </tlLogic>
   <tlLogic id="1271504750" offset="0" programID="0" type="static">
      <phase duration="24.5892322305" state="G"/>
      <phase duration="8.72866224915" state="y"/>
   </tlLogic>
   <tlLogic id="1271504758" offset="0" programID="0" type="static">
      <phase duration="23.1997927449" state="G"/>
      <phase duration="5.51592033807" state="y"/>
   </tlLogic>
   <tlLogic id="1271504763" offset="0" programID="0" type="static">
      <phase duration="28.6436991218" state="G"/>
      <phase duration="6.20071228549" state="y"/>
   </tlLogic>
   <tlLogic id="1271504767" offset="0" programID="0" type="static">
      <phase duration="9.42889643444" state="G"/>
      <phase duration="4.99700996242" state="y"/>
   </tlLogic>
   <tlLogic id="1271504768" offset="0" programID="0" type="static">
      <phase duration="6.77993904234" state="Gr"/>
      <phase duration="6.96041992348" state="yr"/>
      <phase duration="6.77993904234" state="rG"/>
      <phase duration="6.96041992348" state="ry"/>
   </tlLogic>
   <tlLogic id="1271504773" offset="0" programID="0" type="static">
      <phase duration="12.4960829211" state="GGrrr"/>
      <phase duration="4.69580283763" state="yyrrr"/>
      <phase duration="12.4960829211" state="rrGrr"/>
      <phase duration="4.69580283763" state="rryrr"/>
      <phase duration="12.4960829211" state="rrrGG"/>
      <phase duration="4.69580283763" state="rrryy"/>
   </tlLogic>
   <tlLogic id="1271504774" offset="0" programID="0" type="static">
      <phase duration="10.757645868" state="G"/>
      <phase duration="7.406752553" state="y"/>
   </tlLogic>
   <tlLogic id="1271504781" offset="0" programID="0" type="static">
      <phase duration="14.4640281106" state="GGrrr"/>
      <phase duration="2.09154594043" state="yyrrr"/>
      <phase duration="14.4640281106" state="rrGrr"/>
      <phase duration="2.09154594043" state="rryrr"/>
      <phase duration="14.4640281106" state="rrrGG"/>
      <phase duration="2.09154594043" state="rrryy"/>
   </tlLogic>
   <tlLogic id="1271504783" offset="0" programID="0" type="static">
      <phase duration="14.1777868162" state="Gr"/>
      <phase duration="5.23166205894" state="yr"/>
      <phase duration="14.1777868162" state="rG"/>
      <phase duration="5.23166205894" state="ry"/>
   </tlLogic>
   <tlLogic id="1271504795" offset="0" programID="0" type="static">
      <phase duration="24.37226726" state="G"/>
      <phase duration="6.10516902901" state="y"/>
   </tlLogic>
   <tlLogic id="1271504797" offset="0" programID="0" type="static">
      <phase duration="21.5550719058" state="Gr"/>
      <phase duration="5.02920616034" state="yr"/>
      <phase duration="21.5550719058" state="rG"/>
      <phase duration="5.02920616034" state="ry"/>
   </tlLogic>
   <tlLogic id="1271504812" offset="0" programID="0" type="static">
      <phase duration="27.8019554976" state="G"/>
      <phase duration="3.44084051578" state="y"/>
   </tlLogic>
   <tlLogic id="1271504814" offset="0" programID="0" type="static">
      <phase duration="24.9739456347" state="G"/>
      <phase duration="6.28764101852" state="y"/>
   </tlLogic>
   <tlLogic id="1271504815" offset="0" programID="0" type="static">
      <phase duration="15.6736209395" state="Gr"/>
      <phase duration="3.35129576271" state="yr"/>
      <phase duration="15.6736209395" state="rG"/>
      <phase duration="3.35129576271" state="ry"/>
   </tlLogic>
   <tlLogic id="1271504819" offset="0" programID="0" type="static">
      <phase duration="4.76481841298" state="Gr"/>
      <phase duration="6.40461184327" state="yr"/>
      <phase duration="4.76481841298" state="rG"/>
      <phase duration="6.40461184327" state="ry"/>
   </tlLogic>
   <tlLogic id="1271504822" offset="0" programID="0" type="static">
      <phase duration="12.2995115309" state="G"/>
      <phase duration="6.78299082146" state="y"/>
   </tlLogic>
   <tlLogic id="1271504824" offset="0" programID="0" type="static">
      <phase duration="17.2592423776" state="G"/>
      <phase duration="4.46503743302" state="y"/>
   </tlLogic>
   <tlLogic id="1271504831" offset="0" programID="0" type="static">
      <phase duration="9.32100110411" state="G"/>
      <phase duration="5.12722975911" state="y"/>
   </tlLogic>
   <tlLogic id="1271504834" offset="0" programID="0" type="static">
      <phase duration="20.2112697515" state="G"/>
      <phase duration="3.35318065368" state="y"/>
   </tlLogic>
   <tlLogic id="1271504836" offset="0" programID="0" type="static">
      <phase duration="31.7425220201" state="G"/>
      <phase duration="3.63524951609" state="y"/>
   </tlLogic>
   <tlLogic id="1271504841" offset="0" programID="0" type="static">
      <phase duration="28.4024194125" state="G"/>
      <phase duration="8.11200552251" state="y"/>
   </tlLogic>
   <tlLogic id="1271504843" offset="0" programID="0" type="static">
      <phase duration="32.8349564457" state="Gr"/>
      <phase duration="8.11641150738" state="yr"/>
      <phase duration="32.8349564457" state="rG"/>
      <phase duration="8.11641150738" state="ry"/>
   </tlLogic>
   <tlLogic id="1271504849" offset="0" programID="0" type="static">
      <phase duration="18.2985384059" state="GGrrr"/>
      <phase duration="4.09481218446" state="yyrrr"/>
      <phase duration="18.2985384059" state="rrGrr"/>
      <phase duration="4.09481218446" state="rryrr"/>
      <phase duration="18.2985384059" state="rrrGG"/>
      <phase duration="4.09481218446" state="rrryy"/>
   </tlLogic>
   <tlLogic id="1271504851" offset="0" programID="0" type="static">
      <phase duration="13.8082499397" state="G"/>
      <phase duration="5.86627744057" state="y"/>
   </tlLogic>
   <tlLogic id="1271504852" offset="0" programID="0" type="static">
      <phase duration="27.1022116212" state="G"/>
      <phase duration="8.47210290579" state="y"/>
   </tlLogic>
   <tlLogic id="1271504861" offset="0" programID="0" type="static">
      <phase duration="25.931497656" state="G"/>
      <phase duration="6.00206426562" state="y"/>
   </tlLogic>
   <tlLogic id="1271504863" offset="0" programID="0" type="static">
      <phase duration="27.9762841069" state="G"/>
      <phase duration="8.54320093927" state="y"/>
   </tlLogic>
   <tlLogic id="1271504864" offset="0" programID="0" type="static">
      <phase duration="7.99490963755" state="G"/>
      <phase duration="6.10645875968" state="y"/>
   </tlLogic>
   <tlLogic id="1271504868" offset="0" programID="0" type="static">
      <phase duration="9.25216084406" state="Gr"/>
      <phase duration="7.56385472202" state="yr"/>
      <phase duration="9.25216084406" state="rG"/>
      <phase duration="7.56385472202" state="ry"/>
   </tlLogic>
   <tlLogic id="1271504871" offset="0" programID="0" type="static">
      <phase duration="36.4707099131" state="GGrr"/>
      <phase duration="7.40371373302" state="yyrr"/>
      <phase duration="36.4707099131" state="rrGG"/>
      <phase duration="7.40371373302" state="rryy"/>
   </tlLogic>
   <tlLogic id="1271504873" offset="0" programID="0" type="static">
      <phase duration="28.4867631169" state="GGrrr"/>
      <phase duration="2.72518659533" state="yyrrr"/>
      <phase duration="28.4867631169" state="rrGrr"/>
      <phase duration="2.72518659533" state="rryrr"/>
      <phase duration="28.4867631169" state="rrrGG"/>
      <phase duration="2.72518659533" state="rrryy"/>
   </tlLogic>
   <tlLogic id="1271504876" offset="0" programID="0" type="static">
      <phase duration="10.6814194849" state="G"/>
      <phase duration="6.96754146527" state="y"/>
   </tlLogic>
   <tlLogic id="1271504881" offset="0" programID="0" type="static">
      <phase duration="37.3938266231" state="GGrrr"/>
      <phase duration="3.58219928516" state="yyrrr"/>
      <phase duration="37.3938266231" state="rrGrr"/>
      <phase duration="3.58219928516" state="rryrr"/>
      <phase duration="37.3938266231" state="rrrGG"/>
      <phase duration="3.58219928516" state="rrryy"/>
   </tlLogic>
   <tlLogic id="1271504883" offset="0" programID="0" type="static">
      <phase duration="15.1051460366" state="GGrrr"/>
      <phase duration="4.7674470783" state="yyrrr"/>
      <phase duration="15.1051460366" state="rrGrr"/>
      <phase duration="4.7674470783" state="rryrr"/>
      <phase duration="15.1051460366" state="rrrGG"/>
      <phase duration="4.7674470783" state="rrryy"/>
   </tlLogic>
   <tlLogic id="1271504887" offset="0" programID="0" type="static">
      <phase duration="20.5351076318" state="G"/>
      <phase duration="9.52574327622" state="y"/>
   </tlLogic>
   <tlLogic id="1271504891" offset="0" programID="0" type="static">
      <phase duration="4.36625226833" state="G"/>
      <phase duration="5.93674244915" state="y"/>
   </tlLogic>
   <tlLogic id="1271504894" offset="0" programID="0" type="static">
      <phase duration="8.70873678794" state="G"/>
      <phase duration="8.40236035402" state="y"/>
   </tlLogic>
   <tlLogic id="1271504901" offset="0" programID="0" type="static">
      <phase duration="24.9930487988" state="GGrrr"/>
      <phase duration="6.93161119572" state="yyrrr"/>
      <phase duration="24.9930487988" state="rrGrr"/>
      <phase duration="6.93161119572" state="rryrr"/>
      <phase duration="24.9930487988" state="rrrGG"/>
      <phase duration="6.93161119572" state="rrryy"/>
   </tlLogic>
   <tlLogic id="1271504908" offset="0" programID="0" type="static">
      <phase duration="21.5580122989" state="G"/>
      <phase duration="4.53028301042" state="y"/>
   </tlLogic>
   <tlLogic id="1271504918" offset="0" programID="0" type="static">
      <phase duration="24.3706991922" state="G"/>
      <phase duration="9.1054703966" state="y"/>
   </tlLogic>
   <tlLogic id="1299369689" offset="0" programID="0" type="static">
      <phase duration="23.028426478" state="GGrrr"/>
      <phase duration="8.81370741689" state="yyrrr"/>
      <phase duration="23.028426478" state="rrGrr"/>
      <phase duration="8.81370741689" state="rryrr"/>
      <phase duration="23.028426478" state="rrrGG"/>
      <phase duration="8.81370741689" state="rrryy"/>
   </tlLogic>
   <tlLogic id="1299369697" offset="0" programID="0" type="static">
      <phase duration="13.1947815257" state="G"/>
      <phase duration="6.96535013273" state="y"/>
   </tlLogic>
   <tlLogic id="1299369701" offset="0" programID="0" type="static">
      <phase duration="37.9674816425" state="GGrrr"/>
      <phase duration="8.84092731879" state="yyrrr"/>
      <phase duration="37.9674816425" state="rrGrr"/>
      <phase duration="8.84092731879" state="rryrr"/>
      <phase duration="37.9674816425" state="rrrGG"/>
      <phase duration="8.84092731879" state="rrryy"/>
   </tlLogic>
   <tlLogic id="1312440715" offset="0" programID="0" type="static">
      <phase duration="9.85608018971" state="Gr"/>
      <phase duration="3.63942694092" state="yr"/>
      <phase duration="9.85608018971" state="rG"/>
      <phase duration="3.63942694092" state="ry"/>
   </tlLogic>
   <tlLogic id="1353566368" offset="0" programID="0" type="static">
      <phase duration="30.3130586679" state="G"/>
      <phase duration="4.25752141255" state="y"/>
   </tlLogic>
   <tlLogic id="1353566371" offset="0" programID="0" type="static">
      <phase duration="32.0705803584" state="G"/>
      <phase duration="8.43334504432" state="y"/>
   </tlLogic>
   <tlLogic id="1366801174" offset="0" programID="0" type="static">
      <phase duration="30.5056294709" state="G"/>
      <phase duration="8.69697342272" state="y"/>
   </tlLogic>
   <tlLogic id="1366801190" offset="0" programID="0" type="static"/>
   <tlLogic id="1366801191" offset="0" programID="0" type="static">
      <phase duration="9.575086326" state="G"/>
      <phase duration="7.02250301281" state="y"/>
   </tlLogic>
   <tlLogic id="1366801194" offset="0" programID="0" type="static"/>
   <tlLogic id="1366801200" offset="0" programID="0" type="static">
      <phase duration="6.71997199015" state="Gr"/>
      <phase duration="1.67564456457" state="yr"/>
      <phase duration="6.71997199015" state="rG"/>
      <phase duration="1.67564456457" state="ry"/>
   </tlLogic>
   <tlLogic id="1366801204" offset="0" programID="0" type="static">
      <phase duration="20.9857761009" state="G"/>
      <phase duration="5.16640789437" state="y"/>
   </tlLogic>
   <tlLogic id="1366801221" offset="0" programID="0" type="static">
      <phase duration="13.3265698316" state="Gr"/>
      <phase duration="6.40887604537" state="yr"/>
      <phase duration="13.3265698316" state="rG"/>
      <phase duration="6.40887604537" state="ry"/>
   </tlLogic>
   <tlLogic id="1366801262" offset="0" programID="0" type="static">
      <phase duration="13.2176730316" state="G"/>
      <phase duration="6.18267455287" state="y"/>
   </tlLogic>
   <tlLogic id="1366801267" offset="0" programID="0" type="static">
      <phase duration="17.8285936278" state="Grr"/>
      <phase duration="5.69396287195" state="yrr"/>
      <phase duration="17.8285936278" state="rGr"/>
      <phase duration="5.69396287195" state="ryr"/>
      <phase duration="17.8285936278" state="rrG"/>
      <phase duration="5.69396287195" state="rry"/>
   </tlLogic>
   <tlLogic id="1492679675" offset="0" programID="0" type="static">
      <phase duration="4.83125960848" state="Gr"/>
      <phase duration="9.77282482621" state="yr"/>
      <phase duration="4.83125960848" state="rG"/>
      <phase duration="9.77282482621" state="ry"/>
   </tlLogic>
   <tlLogic id="1492679678" offset="0" programID="0" type="static">
      <phase duration="35.5923486945" state="Gr"/>
      <phase duration="6.4075512387" state="yr"/>
      <phase duration="35.5923486945" state="rG"/>
      <phase duration="6.4075512387" state="ry"/>
   </tlLogic>
   <tlLogic id="1492679681" offset="0" programID="0" type="static">
      <phase duration="34.5127906437" state="G"/>
      <phase duration="6.59658156143" state="y"/>
   </tlLogic>
   <tlLogic id="1492679688" offset="0" programID="0" type="static">
      <phase duration="6.26765058688" state="G"/>
      <phase duration="6.682605348" state="y"/>
   </tlLogic>
   <tlLogic id="1492679731" offset="0" programID="0" type="static">
      <phase duration="28.6508228795" state="Gr"/>
      <phase duration="5.13806583256" state="yr"/>
      <phase duration="28.6508228795" state="rG"/>
      <phase duration="5.13806583256" state="ry"/>
   </tlLogic>
   <tlLogic id="1492679733" offset="0" programID="0" type="static">
      <phase duration="38.0276070749" state="Gr"/>
      <phase duration="7.79469332058" state="yr"/>
      <phase duration="38.0276070749" state="rG"/>
      <phase duration="7.79469332058" state="ry"/>
   </tlLogic>
   <tlLogic id="1492679738" offset="0" programID="0" type="static">
      <phase duration="17.2677034209" state="G"/>
      <phase duration="9.46332067576" state="y"/>
   </tlLogic>
   <tlLogic id="1492679740" offset="0" programID="0" type="static">
      <phase duration="21.6978271849" state="G"/>
      <phase duration="6.73588679787" state="y"/>
   </tlLogic>
   <tlLogic id="1492679741" offset="0" programID="0" type="static">
      <phase duration="33.1424822794" state="G"/>
      <phase duration="3.44117786352" state="y"/>
   </tlLogic>
   <tlLogic id="1492679747" offset="0" programID="0" type="static">
      <phase duration="15.7457694683" state="Gr"/>
      <phase duration="3.70424845239" state="yr"/>
      <phase duration="15.7457694683" state="rG"/>
      <phase duration="3.70424845239" state="ry"/>
   </tlLogic>
   <tlLogic id="1492679749" offset="0" programID="0" type="static">
      <phase duration="28.2188792944" state="GGrrr"/>
      <phase duration="6.78431784736" state="yyrrr"/>
      <phase duration="28.2188792944" state="rrGGr"/>
      <phase duration="6.78431784736" state="rryyr"/>
      <phase duration="28.2188792944" state="rrrrG"/>
      <phase duration="6.78431784736" state="rrrry"/>
   </tlLogic>
   <tlLogic id="1492729095" offset="0" programID="0" type="static">
      <phase duration="19.9660436256" state="G"/>
      <phase duration="2.65967764645" state="y"/>
   </tlLogic>
   <tlLogic id="1492729097" offset="0" programID="0" type="static">
      <phase duration="22.1706454916" state="Gr"/>
      <phase duration="5.61696916987" state="yr"/>
      <phase duration="22.1706454916" state="rG"/>
      <phase duration="5.61696916987" state="ry"/>
   </tlLogic>
   <tlLogic id="1492729111" offset="0" programID="0" type="static">
      <phase duration="13.7916757092" state="G"/>
      <phase duration="9.55507726551" state="y"/>
   </tlLogic>
   <tlLogic id="1492729114" offset="0" programID="0" type="static">
      <phase duration="18.2160512101" state="Gr"/>
      <phase duration="4.98378865647" state="yr"/>
      <phase duration="18.2160512101" state="rG"/>
      <phase duration="4.98378865647" state="ry"/>
   </tlLogic>
   <tlLogic id="1492802030" offset="0" programID="0" type="static">
      <phase duration="8.26722075793" state="GGrr"/>