<?xml version="1.0" ?>
<tlLogics>
   <tlLogic id="1000099520" offset="0" programID="0" type="static">
      <phase duration="7.83989369513" state="G"/>
      <phase duration="6.28376559374" state="y"/>
   </tlLogic>
   <tlLogic id="1000099544" offset="0" programID="0" type="static">
      <phase duration="31.4402432509" state="GGrrr"/>
      <phase duration="3.52728788733" state="yyrrr"/>
      <phase duration="31.4402432509" state="rrGGr"/>
      <phase duration="3.52728788733" state="rryyr"/>
      <phase duration="31.4402432509" state="rrrrG"/>
      <phase duration="3.52728788733" state="rrrry"/>
   </tlLogic>
   <tlLogic id="1000099551" offset="0" programID="0" type="static">
      <phase duration="14.2140277562" state="G"/>
      <phase duration="9.45461835149" state="y"/>
   </tlLogic>
   <tlLogic id="1000099591" offset="0" programID="0" type="static">
      <phase duration="14.4539759551" state="GGrr"/>
      <phase duration="9.18014567576" state="yyrr"/>
      <phase duration="14.4539759551" state="rrGG"/>
      <phase duration="9.18014567576" state="rryy"/>
   </tlLogic>
   <tlLogic id="1000099651" offset="0" programID="0" type="static">
      <phase duration="17.1616192412" state="GGrrrr"/>
      <phase duration="8.84963394497" state="yyrrrr"/>
      <phase duration="17.1616192412" state="rrGGrr"/>
      <phase duration="8.84963394497" state="rryyrr"/>
      <phase duration="17.1616192412" state="rrrrGG"/>
      <phase duration="8.84963394497" state="rrrryy"/>
   </tlLogic>
   <tlLogic id="1000099724" offset="0" programID="0" type="static">
      <phase duration="19.6067115355" state="Grrr"/>
      <phase duration="5.26320126438" state="yrrr"/>
      <phase duration="19.6067115355" state="rGGG"/>
      <phase duration="5.26320126438" state="ryyy"/>
   </tlLogic>
   <tlLogic id="1000099741" offset="0" programID="0" type="static">
      <phase duration="15.0304492912" state="GGrr"/>
      <phase duration="8.23833213977" state="yyrr"/>
      <phase duration="15.0304492912" state="rrGG"/>
      <phase duration="8.23833213977" state="rryy"/>
   </tlLogic>
   <tlLogic id="1012321580" offset="0" programID="0" type="static">
      <phase duration="26.814069824" state="Gr"/>
      <phase duration="6.42380219543" state="yr"/>
      <phase duration="26.814069824" state="rG"/>
      <phase duration="6.42380219543" state="ry"/>
   </tlLogic>
   <tlLogic id="1012326820" offset="0" programID="0" type="static">
      <phase duration="30.6103364283" state="G"/>
      <phase duration="6.44299989722" state="y"/>
   </tlLogic>
   <tlLogic id="1028832186" offset="0" programID="0" type="static"/>
   <tlLogic id="1028832536" offset="0" programID="0" type="static"/>
   <tlLogic id="1037290808" offset="0" programID="0" type="static">
      <phase duration="14.2842133414" state="GGGrrrrrr"/>
      <phase duration="7.8376357806" state="yyyrrrrrr"/>
      <phase duration="14.2842133414" state="rrrGGGrrr"/>
      <phase duration="7.8376357806" state="rrryyyrrr"/>
      <phase duration="14.2842133414" state="rrrrrrGGG"/>
      <phase duration="7.8376357806" state="rrrrrryyy"/>
   </tlLogic>
   <tlLogic id="1037290863" offset="0" programID="0" type="static">
      <phase duration="15.1137081393" state="GGrr"/>
      <phase duration="7.65758960619" state="yyrr"/>
      <phase duration="15.1137081393" state="rrGG"/>
      <phase duration="7.65758960619" state="rryy"/>
   </tlLogic>
   <tlLogic id="1037290889" offset="0" programID="0" type="static">
      <phase duration="33.5747917998" state="GGrr"/>
      <phase duration="1.78164558202" state="yyrr"/>
      <phase duration="33.5747917998" state="rrGG"/>
      <phase duration="1.78164558202" state="rryy"/>
   </tlLogic>
   <tlLogic id="1037290915" offset="0" programID="0" type="static">
      <phase duration="33.2665776068" state="GGrrr"/>
      <phase duration="3.1145310104" state="yyrrr"/>
      <phase duration="33.2665776068" state="rrGGG"/>
      <phase duration="3.1145310104" state="rryyy"/>
   </tlLogic>
   <tlLogic id="1037290944" offset="0" programID="0" type="static">
      <phase duration="13.1817841303" state="G"/>
      <phase duration="8.6967187608" state="y"/>
   </tlLogic>
   <tlLogic id="1040964328" offset="0" programID="0" type="static">
      <phase duration="27.775214452" state="Gr"/>
      <phase duration="6.79547178922" state="yr"/>
      <phase duration="27.775214452" state="rG"/>
      <phase duration="6.79547178922" state="ry"/>
   </tlLogic>
   <tlLogic id="1045044692" offset="0" programID="0" type="static">
      <phase duration="16.0571144652" state="Gr"/>
      <phase duration="9.77980133484" state="yr"/>
      <phase duration="16.0571144652" state="rG"/>
      <phase duration="9.77980133484" state="ry"/>
   </tlLogic>
   <tlLogic id="1045044715" offset="0" programID="0" type="static">
      <phase duration="38.2575634579" state="Gr"/>
      <phase duration="8.57901400548" state="yr"/>
      <phase duration="38.2575634579" state="rG"/>
      <phase duration="8.57901400548" state="ry"/>
   </tlLogic>
   <tlLogic id="1045044796" offset="0" programID="0" type="static">
      <phase duration="19.1452744962" state="Gr"/>
      <phase duration="1.34237963615" state="yr"/>
      <phase duration="19.1452744962" state="rG"/>
      <phase duration="1.34237963615" state="ry"/>
   </tlLogic>
   <tlLogic id="1045044863" offset="0" programID="0" type="static">
      <phase duration="21.7210039446" state="G"/>
      <phase duration="8.45939932715" state="y"/>
   </tlLogic>
   <tlLogic id="1062771990" offset="0" programID="0" type="static">
      <phase duration="16.379043378" state="G"/>
      <phase duration="2.61339571358" state="y"/>
   </tlLogic>
   <tlLogic id="1109589944" offset="0" programID="0" type="static">
      <phase duration="9.39170949455" state="GGGrrrrrr"/>
      <phase duration="8.25139625294" state="yyyrrrrrr"/>
      <phase duration="9.39170949455" state="rrrGGGrrr"/>
      <phase duration="8.25139625294" state="rrryyyrrr"/>
      <phase duration="9.39170949455" state="rrrrrrGGG"/>
      <phase duration="8.25139625294" state="rrrrrryyy"/>
   </tlLogic>
   <tlLogic id="1109589987" offset="0" programID="0" type="static">
      <phase duration="31.6580833391" state="GGrr"/>
      <phase duration="3.51131600879" state="yyrr"/>
      <phase duration="31.6580833391" state="rrGG"/>
      <phase duration="3.51131600879" state="rryy"/>
   </tlLogic>
   <tlLogic id="1149210260" offset="0" programID="0" type="static">
      <phase duration="8.94478418488" state="Gr"/>
      <phase duration="8.48844467992" state="yr"/>
      <phase duration="8.94478418488" state="rG"/>
      <phase duration="8.48844467992" state="ry"/>
   </tlLogic>
   <tlLogic id="1150667558" offset="0" programID="0" type="static">
      <phase duration="8.1284647337" state="Gr"/>
      <phase duration="5.43279779036" state="yr"/>
      <phase duration="8.1284647337" state="rG"/>
      <phase duration="5.43279779036" state="ry"/>
   </tlLogic>
   <tlLogic id="1150667586" offset="0" programID="0" type="static">
      <phase duration="22.8719211621" state="G"/>
      <phase duration="9.67112984453" state="y"/>
   </tlLogic>
   <tlLogic id="1150667603" offset="0" programID="0" type="static">
      <phase duration="18.6155831291" state="Gr"/>
      <phase duration="7.36329655937" state="yr"/>
      <phase duration="18.6155831291" state="rG"/>
      <phase duration="7.36329655937" state="ry"/>
   </tlLogic>
   <tlLogic id="1150667608" offset="0" programID="0" type="static">
      <phase duration="3.43808312708" state="Gr"/>
      <phase duration="3.91317302641" state="yr"/>
      <phase duration="3.43808312708" state="rG"/>
      <phase duration="3.91317302641" state="ry"/>
   </tlLogic>
   <tlLogic id="1150667618" offset="0" programID="0" type="static">
      <phase duration="21.9981749254" state="G"/>
      <phase duration="3.94064731563" state="y"/>
   </tlLogic>
   <tlLogic id="1150667622" offset="0" programID="0" type="static">
      <phase duration="7.88644943022" state="G"/>
      <phase duration="5.33613076916" state="y"/>
   </tlLogic>
   <tlLogic id="1157698150" offset="0" programID="0" type="static">
      <phase duration="8.37610726974" state="G"/>
      <phase duration="4.31395426072" state="y"/>
   </tlLogic>
   <tlLogic id="1200892937" offset="0" programID="0" type="static">
      <phase duration="32.955628972" state="G"/>
      <phase duration="2.12398118885" state="y"/>
   </tlLogic>
   <tlLogic id="1201745399" offset="0" programID="0" type="static"/>
   <tlLogic id="1201745409" offset="0" programID="0" type="static">
      <phase duration="4.05468687723" state="G"/>
      <phase duration="6.60292477167" state="y"/>
   </tlLogic>
   <tlLogic id="1211136497" offset="0" programID="0" type="static">
      <phase duration="21.2732862586" state="GGrr"/>
      <phase duration="3.16819421548" state="yyrr"/>
      <phase duration="21.2732862586" state="rrGG"/>
      <phase duration="3.16819421548" state="rryy"/>
   </tlLogic>
   <tlLogic id="1220020656" offset="0" programID="0" type="static">
      <phase duration="15.3242274281" state="GGrr"/>
      <phase duration="2.8748046089" state="yyrr"/>
      <phase duration="15.3242274281" state="rrGG"/>
      <phase duration="2.8748046089" state="rryy"/>
   </tlLogic>
   <tlLogic id="1229522502" offset="0" programID="0" type="static">
      <phase duration="37.5899700532" state="Gr"/>
      <phase duration="1.25663899698" state="yr"/>
      <phase duration="37.5899700532" state="rG"/>
      <phase duration="1.25663899698" state="ry"/>
   </tlLogic>
   <tlLogic id="1229522554" offset="0" programID="0" type="static">
      <phase duration="28.2213126261" state="G"/>
      <phase duration="8.99470413829" state="y"/>
   </tlLogic>
   <tlLogic id="1252285082" offset="0" programID="0" type="static">
      <phase duration="1.27936462407" state="G"/>
      <phase duration="4.19516731593" state="y"/>
   </tlLogic>
   <tlLogic id="1252285092" offset="0" programID="0" type="static">
      <phase duration="13.3400915006" state="G"/>
      <phase duration="7.1391063209" state="y"/>
   </tlLogic>
   <tlLogic id="1252285107" offset="0" programID="0" type="static">
      <phase duration="19.0851458054" state="G"/>
      <phase duration="4.75407352849" state="y"/>
   </tlLogic>
   <tlLogic id="1252285133" offset="0" programID="0" type="static">
      <phase duration="16.9440612554" state="Gr"/>
      <phase duration="3.77463109611" state="yr"/>
      <phase duration="16.9440612554" state="rG"/>
      <phase duration="3.77463109611" state="ry"/>
   </tlLogic>
   <tlLogic id="1252285137" offset="0" programID="0" type="static">
      <phase duration="2.75199805177" state="Gr"/>
      <phase duration="6.91996123831" state="yr"/>
      <phase duration="2.75199805177" state="rG"/>
      <phase duration="6.91996123831" state="ry"/>
   </tlLogic>
   <tlLogic id="1252285138" offset="0" programID="0" type="static">
      <phase duration="15.2459089274" state="G"/>
      <phase duration="8.40444526895" state="y"/>
   </tlLogic>
   <tlLogic id="1252285140" offset="0" programID="0" type="static">
      <phase duration="33.3388864533" state="Gr"/>
      <phase duration="3.27244861346" state="yr"/>
      <phase duration="33.3388864533" state="rG"/>
      <phase duration="3.27244861346" state="ry"/>
   </tlLogic>
   <tlLogic id="1271504750" offset="0" programID="0" type="static">
      <phase duration="28.9524407395" state="G"/>
      <phase duration="8.66902706114" state="y"/>
   </tlLogic>
   <tlLogic id="1271504757" offset="0" programID="0" type="static">
      <phase duration="30.5533802578" state="GGrrr"/>
      <phase duration="4.76297596301" state="yyrrr"/>
      <phase duration="30.5533802578" state="rrGrr"/>
      <phase duration="4.76297596301" state="rryrr"/>
      <phase duration="30.5533802578" state="rrrGG"/>
      <phase duration="4.76297596301" state="rrryy"/>
   </tlLogic>
   <tlLogic id="1271504758" offset="0" programID="0" type="static">
      <phase duration="38.4090062568" state="G"/>
      <phase duration="6.43022210991" state="y"/>
   </tlLogic>
   <tlLogic id="1271504764" offset="0" programID="0" type="static">
      <phase duration="11.2802824337" state="G"/>
      <phase duration="8.31775086605" state="y"/>
   </tlLogic>
   <tlLogic id="1271504767" offset="0" programID="0" type="static">
      <phase duration="7.91937898429" state="G"/>
      <phase duration="6.76264870275" state="y"/>
   </tlLogic>
   <tlLogic id="1271504768" offset="0" programID="0" type="static">
      <phase duration="5.93877271214" state="Gr"/>
      <phase duration="8.03776914598" state="yr"/>
      <phase duration="5.93877271214" state="rG"/>
      <phase duration="8.03776914598" state="ry"/>
   </tlLogic>
   <tlLogic id="1271504773" offset="0" programID="0" type="static">
      <phase duration="17.0419472346" state="GGrrr"/>
      <phase duration="6.7917837492" state="yyrrr"/>
      <phase duration="17.0419472346" state="rrGrr"/>
      <phase duration="6.7917837492" state="rryrr"/>
      <phase duration="17.0419472346" state="rrrGG"/>
      <phase duration="6.7917837492" state="rrryy"/>
   </tlLogic>
   <tlLogic id="1271504775" offset="0" programID="0" type="static">
      <phase duration="7.96098290348" state="Gr"/>
      <phase duration="5.77447250275" state="yr"/>
      <phase duration="7.96098290348" state="rG"/>
      <phase duration="5.77447250275" state="ry"/>
   </tlLogic>
   <tlLogic id="1271504781" offset="0" programID="0" type="static">
      <phase duration="8.00423623638" state="GGrrr"/>
      <phase duration="1.04917284937" state="yyrrr"/>
      <phase duration="8.00423623638" state="rrGrr"/>
      <phase duration="1.04917284937" state="rryrr"/>
      <phase duration="8.00423623638" state="rrrGG"/>
      <phase duration="1.04917284937" state="rrryy"/>
   </tlLogic>
   <tlLogic id="1271504783" offset="0" programID="0" type="static">
      <phase duration="9.60174468066" state="Gr"/>
      <phase duration="4.44343783182" state="yr"/>
      <phase duration="9.60174468066" state="rG"/>
      <phase duration="4.44343783182" state="ry"/>
   </tlLogic>
   <tlLogic id="1271504795" offset="0" programID="0" type="static">
      <phase duration="32.7826038834" state="G"/>
      <phase duration="1.97564576834" state="y"/>
   </tlLogic>
   <tlLogic id="1271504797" offset="0" programID="0" type="static">
      <phase duration="25.6463304446" state="Gr"/>
      <phase duration="1.94653246006" state="yr"/>
      <phase duration="25.6463304446" state="rG"/>
      <phase duration="1.94653246006" state="ry"/>
   </tlLogic>
   <tlLogic id="1271504801" offset="0" programID="0" type="static">
      <phase duration="29.6991635387" state="G"/>
      <phase duration="5.44629813597" state="y"/>
   </tlLogic>
   <tlLogic id="1271504812" offset="0" programID="0" type="static">
      <phase duration="33.3037269877" state="G"/>
      <phase duration="5.52649376724" state="y"/>
   </tlLogic>
   <tlLogic id="1271504815" offset="0" programID="0" type="static">
      <phase duration="15.4375160992" state="Gr"/>
      <phase duration="1.62450678899" state="yr"/>
      <phase duration="15.4375160992" state="rG"/>
      <phase duration="1.62450678899" state="ry"/>
   </tlLogic>
   <tlLogic id="1271504819" offset="0" programID="0" type="static">
      <phase duration="5.03545187934" state="Gr"/>
      <phase duration="6.35705146203" state="yr"/>
      <phase duration="5.03545187934" state="rG"/>
      <phase duration="6.35705146203" state="ry"/>
   </tlLogic>
   <tlLogic id="1271504822" offset="0" programID="0" type="static">
      <phase duration="11.9985506797" state="G"/>
      <phase duration="4.82220696075" state="y"/>
   </tlLogic>
   <tlLogic id="1271504823" offset="0" programID="0" type="static">
      <phase duration="32.8346926485" state="G"/>
      <phase duration="2.53786472321" state="y"/>
   </tlLogic>
   <tlLogic id="1271504824" offset="0" programID="0" type="static">
      <phase duration="24.3326713131" state="G"/>
      <phase duration="5.06670880883" state="y"/>
   </tlLogic>
   <tlLogic id="1271504831" offset="0" programID="0" type="static">
      <phase duration="7.12048720341" state="G"/>
      <phase duration="3.87169229679" state="y"/>
   </tlLogic>
   <tlLogic id="1271504834" offset="0" programID="0" type="static">
      <phase duration="2.65985195946" state="G"/>
      <phase duration="2.64814256278" state="y"/>
   </tlLogic>
   <tlLogic id="1271504836" offset="0" programID="0" type="static">
      <phase duration="31.7470812911" state="G"/>
      <phase duration="3.15730889947" state="y"/>
   </tlLogic>
   <tlLogic id="1271504841" offset="0" programID="0" type="static">
      <phase duration="11.0783882587" state="G"/>
      <phase duration="8.29980533933" state="y"/>
   </tlLogic>
   <tlLogic id="1271504843" offset="0" programID="0" type="static">
      <phase duration="12.1789401929" state="Gr"/>
      <phase duration="7.91761513047" state="yr"/>
      <phase duration="12.1789401929" state="rG"/>
      <phase duration="7.91761513047" state="ry"/>
   </tlLogic>
   <tlLogic id="1271504845" offset="0" programID="0" type="static">
      <phase duration="10.083585685" state="G"/>
      <phase duration="4.76539518466" state="y"/>
   </tlLogic>
   <tlLogic id="1271504851" offset="0" programID="0" type="static">
      <phase duration="8.70512565419" state="G"/>
      <phase duration="4.87785901244" state="y"/>
   </tlLogic>
   <tlLogic id="1271504852" offset="0" programID="0" type="static">
      <phase duration="31.6426358011" state="G"/>
      <phase duration="7.43779984006" state="y"/>
   </tlLogic>
   <tlLogic id="1271504858" offset="0" programID="0" type="static">
      <phase duration="1.32145060701" state="G"/>
      <phase duration="2.8259620106" state="y"/>
   </tlLogic>
   <tlLogic id="1271504863" offset="0" programID="0" type="static">
      <phase duration="39.8069152" state="G"/>
      <phase duration="8.89076394781" state="y"/>
   </tlLogic>
   <tlLogic id="1271504864" offset="0" programID="0" type="static">
      <phase duration="4.99717539351" state="G"/>
      <phase duration="2.56888149938" state="y"/>
   </tlLogic>
   <tlLogic id="1271504873" offset="0" programID="0" type="static">
      <phase duration="29.5417319888" state="GGrrr"/>
      <phase duration="1.95636867391" state="yyrrr"/>
      <phase duration="29.5417319888" state="rrGrr"/>
      <phase duration="1.95636867391" state="rryrr"/>
      <phase duration="29.5417319888" state="rrrGG"/>
      <phase duration="1.95636867391" state="rrryy"/>
   </tlLogic>
   <tlLogic id="1271504876" offset="0" programID="0" type="static">
      <phase duration="6.26797349328" state="G"/>
      <phase duration="3.35983689226" state="y"/>
   </tlLogic>
   <tlLogic id="1271504878" offset="0" programID="0" type="static">
      <phase duration="21.8192253361" state="G"/>
      <phase duration="5.1853834729" state="y"/>
   </tlLogic>
   <tlLogic id="1271504881" offset="0" programID="0" type="static">
      <phase duration="8.2628387162" state="GGrrr"/>
      <phase duration="2.5413962026" state="yyrrr"/>
      <phase duration="8.2628387162" state="rrGrr"/>
      <phase duration="2.5413962026" state="rryrr"/>
      <phase duration="8.2628387162" state="rrrGG"/>
      <phase duration="2.5413962026" state="rrryy"/>
   </tlLogic>
   <tlLogic id="1271504887" offset="0" programID="0" type="static">
      <phase duration="9.54036306088" state="G"/>
      <phase duration="2.18300164012" state="y"/>
   </tlLogic>
   <tlLogic id="1271504888" offset="0" programID="0" type="static">
      <phase duration="3.20510810592" state="G"/>
      <phase duration="5.72291590573" state="y"/>
   </tlLogic>
   <tlLogic id="1271504891" offset="0" programID="0" type="static">
      <phase duration="20.4754222279" state="G"/>
      <phase duration="8.95533382417" state="y"/>
   </tlLogic>
   <tlLogic id="1271504893" offset="0" programID="0" type="static">
      <phase duration="27.8460585808" state="GGrrr"/>
      <phase duration="4.6832827466" state="yyrrr"/>
      <phase duration="27.8460585808" state="rrGrr"/>
      <phase duration="4.6832827466" state="rryrr"/>
      <phase duration="27.8460585808" state="rrrGG"/>
      <phase duration="4.6832827466" state="rrryy"/>
   </tlLogic>
   <tlLogic id="1271504894" offset="0" programID="0" type="static">
      <phase duration="12.4203604715" state="G"/>
      <phase duration="7.15968780172" state="y"/>
   </tlLogic>
   <tlLogic id="1271504898" offset="0" programID="0" type="static">
      <phase duration="21.790052935" state="Gr"/>
      <phase duration="1.52026899862" state="yr"/>
      <phase duration="21.790052935" state="rG"/>
      <phase duration="1.52026899862" state="ry"/>
   </tlLogic>
   <tlLogic id="1271504901" offset="0" programID="0" type="static">
      <phase duration="25.5146585083" state="GGrrr"/>
      <phase duration="4.57991910912" state="yyrrr"/>
      <phase duration="25.5146585083" state="rrGrr"/>
      <phase duration="4.57991910912" state="rryrr"/>
      <phase duration="25.5146585083" state="rrrGG"/>
      <phase duration="4.57991910912" state="rrryy"/>
   </tlLogic>
   <tlLogic id="1271504902" offset="0" programID="0" type="static">
      <phase duration="21.5182272323" state="Gr"/>
      <phase duration="1.27830483278" state="yr"/>
      <phase duration="21.5182272323" state="rG"/>
      <phase duration="1.27830483278" state="ry"/>
   </tlLogic>
   <tlLogic id="1271504907" offset="0" programID="0" type="static">
      <phase duration="20.2766777596" state="G"/>
      <phase duration="1.64104527947" state="y"/>
   </tlLogic>
   <tlLogic id="1271504908" offset="0" programID="0" type="static">
      <phase duration="17.4738375936" state="G"/>
      <phase duration="8.68952873351" state="y"/>
   </tlLogic>
   <tlLogic id="1271504910" offset="0" programID="0" type="static">
      <phase duration="23.1444894432" state="Gr"/>
      <phase duration="5.69819890404" state="yr"/>
      <phase duration="23.1444894432" state="rG"/>
      <phase duration="5.69819890404" state="ry"/>
   </tlLogic>
   <tlLogic id="1271504913" offset="0" programID="0" type="static">
      <phase duration="21.806017832" state="GGrrr"/>
      <phase duration="2.78388029685" state="yyrrr"/>
      <phase duration="21.806017832" state="rrGGr"/>
      <phase duration="2.78388029685" state="rryyr"/>
      <phase duration="21.806017832" state="rrrrG"/>
      <phase duration="2.78388029685" state="rrrry"/>
   </tlLogic>
   <tlLogic id="1271504914" offset="0" programID="0" type="static">
      <phase duration="27.4285916423" state="G"/>
      <phase duration="4.99132458744" state="y"/>
   </tlLogic>
   <tlLogic id="1271504918" offset="0" programID="0" type="static">
      <phase duration="22.3077630676" state="G"/>
      <phase duration="9.20492412919" state="y"/>
   </tlLogic>
   <tlLogic id="1299369677" offset="0" programID="0" type="static">
      <phase duration="11.6816600636" state="G"/>
      <phase duration="7.93152688433" state="y"/>
   </tlLogic>
   <tlLogic id="1299369684" offset="0" programID="0" type="static">
      <phase duration="39.9671184993" state="G"/>
      <phase duration="3.20260660578" state="y"/>
   </tlLogic>
   <tlLogic id="1299369697" offset="0" programID="0" type="static">
      <phase duration="3.42559267911" state="G"/>
      <phase duration="7.036596962" state="y"/>
   </tlLogic>
   <tlLogic id="1299369699" offset="0" programID="0" type="static">
      <phase duration="39.7582429616" state="G"/>
      <phase duration="6.44616552382" state="y"/>
   </tlLogic>
   <tlLogic id="1312440715" offset="0" programID="0" type="static">
      <phase duration="35.6756307779" state="Gr"/>
      <phase duration="4.21958420128" state="yr"/>
      <phase duration="35.6756307779" state="rG"/>
      <phase duration="4.21958420128" state="ry"/>
   </tlLogic>
   <tlLogic id="1312812204" offset="0" programID="0" type="static">
      <phase duration="19.8903831105" state="G"/>
      <phase duration="2.94520980116" state="y"/>
   </tlLogic>
   <tlLogic id="1353566368" offset="0" programID="0" type="static">
      <phase duration="29.4225216883" state="G"/>
      <phase duration="3.73715380406" state="y"/>
   </tlLogic>
   <tlLogic id="1353566371" offset="0" programID="0" type="static">
      <phase duration="29.0471654589" state="G"/>
      <phase duration="7.80203988222" state="y"/>
   </tlLogic>
   <tlLogic id="1366801174" offset="0" programID="0" type="static">
      <phase duration="30.9315950941" state="G"/>
      <phase duration="7.54616983223" state="y"/>
   </tlLogic>
   <tlLogic id="1366801190" offset="0" programID="0" type="static"/>
   <tlLogic id="1366801191" offset="0" programID="0" type="static">
      <phase duration="4.91082183137" state="G"/>
      <phase duration="7.22160191658" state="y"/>
   </tlLogic>
   <tlLogic id="1366801194" offset="0" programID="0" type="static"/>
   <tlLogic id="1366801200" offset="0" programID="0" type="static">
      <phase duration="22.5194528541" state="Gr"/>
      <phase duration="1.43475156719" state="yr"/>
      <phase duration="22.5194528541" state="rG"/>
      <phase duration="1.43475156719" state="ry"/>
   </tlLogic>
   <tlLogic id="1366801204" offset="0" programID="0" type="static">
      <phase duration="15.3984471638" state="G"/>
      <phase duration="4.69329595355" state="y"/>
   </tlLogic>
   <tlLogic id="1366801221" offset="0" programID="0" type="static">
      <phase duration="17.3026858073" state="Gr"/>
      <phase duration="8.80107525486" state="yr"/>
      <phase duration="17.3026858073" state="rG"/>
      <phase duration="8.80107525486" state="ry"/>
   </tlLogic>
   <tlLogic id="1366801262" offset="0" programID="0" type="static">
      <phase duration="9.55495650601" state="G"/>
      <phase duration="7.15623493739" state="y"/>
   </tlLogic>
   <tlLogic id="1366801267" offset="0" programID="0" type="static">
      <phase duration="34.0471942068" state="Grr"/>
      <phase duration="9.04898608426" state="yrr"/>
      <phase duration="34.0471942068" state="rGr"/>
      <phase duration="9.04898608426" state="ryr"/>
      <phase duration="34.0471942068" state="rrG"/>
      <phase duration="9.04898608426" state="rry"/>
   </tlLogic>
   <tlLogic id="1492679675" offset="0" programID="0" type="static">
      <phase duration="29.4256890846" state="Gr"/>
      <phase duration="9.90610478616" state="yr"/>
      <phase duration="29.4256890846" state="rG"/>
      <phase duration="9.90610478616" state="ry"/>
   </tlLogic>
   <tlLogic id="1492679678" offset="0" programID="0" type="static">
      <phase duration="38.6819480581" state="Gr"/>
      <phase duration="6.53145132597" state="yr"/>
      <phase duration="38.6819480581" state="rG"/>
      <phase duration="6.53145132597" state="ry"/>
   </tlLogic>
   <tlLogic id="1492679681" offset="0" programID="0" type="static">
      <phase duration="37.1019596771" state="G"/>
      <phase duration="5.20175289109" state="y"/>
   </tlLogic>
   <tlLogic id="1492679687" offset="0" programID="0" type="static">
      <phase duration="35.0474845361" state="Gr"/>
      <phase duration="7.71544415248" state="yr"/>
      <phase duration="35.0474845361" state="rG"/>
      <phase duration="7.71544415248" state="ry"/>
   </tlLogic>
   <tlLogic id="1492679688" offset="0" programID="0" type="static">
      <phase duration="5.92625893583" state="G"/>
      <phase duration="6.76604727385" state="y"/>
   </tlLogic>
   <tlLogic id="1492679731" offset="0" programID="0" type="static">
      <phase duration="21.1437387319" state="Gr"/>
      <phase duration="5.06560233044" state="yr"/>
      <phase duration="21.1437387319" state="rG"/>
      <phase duration="5.06560233044" state="ry"/>
   </tlLogic>
   <tlLogic id="1492679740" offset="0" programID="0" type="static">
      <phase duration="13.7059964126" state="G"/>
      <phase duration="2.78049443321" state="y"/>
   </tlLogic>
   <tlLogic id="1492679747" offset="0" programID="0" type="static">
      <phase duration="9.29128780054" state="Gr"/>
      <phase duration="3.88884936341" state="yr"/>
      <phase duration="9.29128780054" state="rG"/>
      <phase duration="3.88884936341" state="ry"/>
   </tlLogic>
   <tlLogic id="1492679755" offset="0" programID="0" type="static">
      <phase duration="12.8527365595" state="G"/>
      <phase duration="5.78365868249" state="y"/>
   </tlLogic>
   <tlLogic id="1492729095" offset="0" programID="0" type="static">
      <phase duration="21.6298729878" state="G"/>
      <phase duration="3.00873482009" state="y"/>
   </tlLogic>
   <tlLogic id="1492729097" offset="0" programID="0" type="static">
      <phase duration="34.3638863552" state="Gr"/>
      <phase duration="4.84451757096" state="yr"/>
      <phase duration="34.3638863552" state="rG"/>
      <phase duration="4.84451757096" state="ry"/>
   </tlLogic>
   <tlLogic id="1492729111" offset="0" programID="0" type="static">
      <phase duration="3.69302559265" state="G"/>
      <phase duration="9.50469828011" state="y"/>
   </tlLogic>
   <tlLogic id="1492729114" offset="0" programID="0" type="static">
      <phase duration="9.49772697732" state="Gr"/>
      <phase duration="5.17059032805" state="yr"/>
      <phase duration="9.49772697732" state="rG"/>
      <phase duration="5.17059032805" state="ry"/>
   </tlLogic>
   <tlLogic id="1492802032" offset="0" programID="0" type="static">
      <phase duration="3.67784751923" state="G"/>
      <phase duration="1.37996210115" state="y"/>
   </tlLogic>
   <tlLogic id="1492802065" offset="0" programID="0" type="static">
      <phase duration="13.5036537656" state="G"/>
      <phase duration="7.38575704299" state="y"/>
   </tlLogic>
   <tlLogic id="1492802066" offset="0" programID="0" type="static">
      <phase duration="17.6579008061" state="Gr"/>
      <phase duration="3.09667033574" state="yr"/>
      <phase duration="17.6579008061" state="rG"/>