<?xml version="1.0" ?>
<tlLogics>
   <tlLogic id="1000099475" offset="0" programID="0" type="static">
      <phase duration="18.0502477075" state="GG"/>
      <phase duration="7.15550717933" state="yy"/>
   </tlLogic>
   <tlLogic id="1000099520" offset="0" programID="0" type="static">
      <phase duration="10.6877553126" state="G"/>
      <phase duration="3.81635309805" state="y"/>
   </tlLogic>
   <tlLogic id="1000099544" offset="0" programID="0" type="static">
      <phase duration="9.89633881688" state="GGrrr"/>
      <phase duration="5.96809472391" state="yyrrr"/>
      <phase duration="9.89633881688" state="rrGGr"/>
      <phase duration="5.96809472391" state="rryyr"/>
      <phase duration="9.89633881688" state="rrrrG"/>
      <phase duration="5.96809472391" state="rrrry"/>
   </tlLogic>
   <tlLogic id="1000099551" offset="0" programID="0" type="static">
      <phase duration="18.5682129554" state="G"/>
      <phase duration="10.0" state="y"/>
   </tlLogic>
   <tlLogic id="1000099553" offset="0" programID="0" type="static">
      <phase duration="21.9133968771" state="Gr"/>
      <phase duration="10.0" state="yr"/>
      <phase duration="21.9133968771" state="rG"/>
      <phase duration="10.0" state="ry"/>
   </tlLogic>
   <tlLogic id="1000099576" offset="0" programID="0" type="static">
      <phase duration="3.72592957903" state="Grrrr"/>
      <phase duration="3.32680379229" state="yrrrr"/>
      <phase duration="3.72592957903" state="rGGrr"/>
      <phase duration="3.32680379229" state="ryyrr"/>
      <phase duration="3.72592957903" state="rrrGG"/>
      <phase duration="3.32680379229" state="rrryy"/>
   </tlLogic>
   <tlLogic id="1000099607" offset="0" programID="0" type="static">
      <phase duration="22.9487690774" state="GGr"/>
      <phase duration="9.75132901951" state="yyr"/>
      <phase duration="22.9487690774" state="rrG"/>
      <phase duration="9.75132901951" state="rry"/>
   </tlLogic>
   <tlLogic id="1000099650" offset="0" programID="0" type="static">
      <phase duration="17.4955449892" state="G"/>
      <phase duration="10.0" state="y"/>
   </tlLogic>
   <tlLogic id="1000099724" offset="0" programID="0" type="static">
      <phase duration="19.1922546708" state="Grrr"/>
      <phase duration="5.89981514004" state="yrrr"/>
      <phase duration="19.1922546708" state="rGGG"/>
      <phase duration="5.89981514004" state="ryyy"/>
   </tlLogic>
   <tlLogic id="1000099741" offset="0" programID="0" type="static">
      <phase duration="25.8330701532" state="GGrr"/>
      <phase duration="8.54872177346" state="yyrr"/>
      <phase duration="25.8330701532" state="rrGG"/>
      <phase duration="8.54872177346" state="rryy"/>
   </tlLogic>
   <tlLogic id="1000099788" offset="0" programID="0" type="static">
      <phase duration="34.6132301869" state="GGrr"/>
      <phase duration="6.61955559433" state="yyrr"/>
      <phase duration="34.6132301869" state="rrGG"/>
      <phase duration="6.61955559433" state="rryy"/>
   </tlLogic>
   <tlLogic id="1012321567" offset="0" programID="0" type="static">
      <phase duration="12.4399905191" state="Gr"/>
      <phase duration="9.63395080716" state="yr"/>
      <phase duration="12.4399905191" state="rG"/>
      <phase duration="9.63395080716" state="ry"/>
   </tlLogic>
   <tlLogic id="1012326820" offset="0" programID="0" type="static">
      <phase duration="4.0" state="G"/>
      <phase duration="5.71689165405" state="y"/>
   </tlLogic>
   <tlLogic id="1037290808" offset="0" programID="0" type="static">
      <phase duration="4.80458466382" state="GGGrrrrrr"/>
      <phase duration="6.67232477972" state="yyyrrrrrr"/>
      <phase duration="4.80458466382" state="rrrGGGrrr"/>
      <phase duration="6.67232477972" state="rrryyyrrr"/>
      <phase duration="4.80458466382" state="rrrrrrGGG"/>
      <phase duration="6.67232477972" state="rrrrrryyy"/>
   </tlLogic>
   <tlLogic id="1037290822" offset="0" programID="0" type="static">
      <phase duration="36.3676858819" state="GGrr"/>
      <phase duration="5.53422694796" state="yyrr"/>
      <phase duration="36.3676858819" state="rrGG"/>
      <phase duration="5.53422694796" state="rryy"/>
   </tlLogic>
   <tlLogic id="1037290915" offset="0" programID="0" type="static">
      <phase duration="23.4441567611" state="GGrrr"/>
      <phase duration="5.29775244382" state="yyrrr"/>
      <phase duration="23.4441567611" state="rrGGG"/>
      <phase duration="5.29775244382" state="rryyy"/>
   </tlLogic>
   <tlLogic id="1040964328" offset="0" programID="0" type="static">
      <phase duration="12.328051862" state="Gr"/>
      <phase duration="9.23580510006" state="yr"/>
      <phase duration="12.328051862" state="rG"/>
      <phase duration="9.23580510006" state="ry"/>
   </tlLogic>
   <tlLogic id="1040964333" offset="0" programID="0" type="static">
      <phase duration="29.4042324038" state="Gr"/>
      <phase duration="9.96636387415" state="yr"/>
      <phase duration="29.4042324038" state="rG"/>
      <phase duration="9.96636387415" state="ry"/>
   </tlLogic>
   <tlLogic id="1045044715" offset="0" programID="0" type="static">
      <phase duration="12.6338444767" state="Gr"/>
      <phase duration="8.18339164903" state="yr"/>
      <phase duration="12.6338444767" state="rG"/>
      <phase duration="8.18339164903" state="ry"/>
   </tlLogic>
   <tlLogic id="1045044750" offset="0" programID="0" type="static">
      <phase duration="12.8949242652" state="Gr"/>
      <phase duration="7.91620402712" state="yr"/>
      <phase duration="12.8949242652" state="rG"/>
      <phase duration="7.91620402712" state="ry"/>
   </tlLogic>
   <tlLogic id="1045044796" offset="0" programID="0" type="static">
      <phase duration="27.4165121092" state="Gr"/>
      <phase duration="5.24493244088" state="yr"/>
      <phase duration="27.4165121092" state="rG"/>
      <phase duration="5.24493244088" state="ry"/>
   </tlLogic>
   <tlLogic id="1109589944" offset="0" programID="0" type="static">
      <phase duration="11.0442959985" state="GGGrrrrrr"/>
      <phase duration="6.657226114" state="yyyrrrrrr"/>
      <phase duration="11.0442959985" state="rrrGGGrrr"/>
      <phase duration="6.657226114" state="rrryyyrrr"/>
      <phase duration="11.0442959985" state="rrrrrrGGG"/>
      <phase duration="6.657226114" state="rrrrrryyy"/>
   </tlLogic>
   <tlLogic id="1109589987" offset="0" programID="0" type="static">
      <phase duration="17.9119265557" state="GGrr"/>
      <phase duration="5.21942278583" state="yyrr"/>
      <phase duration="17.9119265557" state="rrGG"/>
      <phase duration="5.21942278583" state="rryy"/>
   </tlLogic>
   <tlLogic id="1149210260" offset="0" programID="0" type="static">
      <phase duration="11.1063044131" state="Gr"/>
      <phase duration="5.68842218851" state="yr"/>
      <phase duration="11.1063044131" state="rG"/>
      <phase duration="5.68842218851" state="ry"/>
   </tlLogic>
   <tlLogic id="1150667539" offset="0" programID="0" type="static">
      <phase duration="14.3692541193" state="G"/>
      <phase duration="2.46004985188" state="y"/>
   </tlLogic>
   <tlLogic id="1150667540" offset="0" programID="0" type="static">
      <phase duration="26.057566925" state="G"/>
      <phase duration="6.43500520678" state="y"/>
   </tlLogic>
   <tlLogic id="1150667546" offset="0" programID="0" type="static">
      <phase duration="13.7182475015" state="G"/>
      <phase duration="5.78533305527" state="y"/>
   </tlLogic>
   <tlLogic id="1150667552" offset="0" programID="0" type="static">
      <phase duration="28.6788318805" state="Gr"/>
      <phase duration="2.90822521347" state="yr"/>
      <phase duration="28.6788318805" state="rG"/>
      <phase duration="2.90822521347" state="ry"/>
   </tlLogic>
   <tlLogic id="1150667558" offset="0" programID="0" type="static">
      <phase duration="15.3855764899" state="Gr"/>
      <phase duration="7.64263915388" state="yr"/>
      <phase duration="15.3855764899" state="rG"/>
      <phase duration="7.64263915388" state="ry"/>
   </tlLogic>
   <tlLogic id="1150667560" offset="0" programID="0" type="static">
      <phase duration="9.86697967657" state="G"/>
      <phase duration="2.52226164654" state="y"/>
   </tlLogic>
   <tlLogic id="1150667568" offset="0" programID="0" type="static"/>
   <tlLogic id="1150667571" offset="0" programID="0" type="static">
      <phase duration="15.4980947561" state="G"/>
      <phase duration="8.79515899062" state="y"/>
   </tlLogic>
   <tlLogic id="1150667586" offset="0" programID="0" type="static">
      <phase duration="25.3708314852" state="G"/>
      <phase duration="8.79797174053" state="y"/>
   </tlLogic>
   <tlLogic id="1150667618" offset="0" programID="0" type="static">
      <phase duration="32.6913147556" state="G"/>
      <phase duration="9.54527248078" state="y"/>
   </tlLogic>
   <tlLogic id="1156723779" offset="0" programID="0" type="static">
      <phase duration="27.9242944563" state="GGrrr"/>
      <phase duration="10.0" state="yyrrr"/>
      <phase duration="27.9242944563" state="rrGrr"/>
      <phase duration="10.0" state="rryrr"/>
      <phase duration="27.9242944563" state="rrrGG"/>
      <phase duration="10.0" state="rrryy"/>
   </tlLogic>
   <tlLogic id="1156723834" offset="0" programID="0" type="static">
      <phase duration="12.7582780293" state="G"/>
      <phase duration="6.10794558373" state="y"/>
   </tlLogic>
   <tlLogic id="1157698150" offset="0" programID="0" type="static">
      <phase duration="22.2071220412" state="G"/>
      <phase duration="5.95916470763" state="y"/>
   </tlLogic>
   <tlLogic id="1200892937" offset="0" programID="0" type="static">
      <phase duration="26.7517189055" state="G"/>
      <phase duration="5.2444178461" state="y"/>
   </tlLogic>
   <tlLogic id="1200892960" offset="0" programID="0" type="static">
      <phase duration="39.2509824012" state="Gr"/>
      <phase duration="5.37546780997" state="yr"/>
      <phase duration="39.2509824012" state="rG"/>
      <phase duration="5.37546780997" state="ry"/>
   </tlLogic>
   <tlLogic id="1201745377" offset="0" programID="0" type="static">
      <phase duration="3.27253247835" state="G"/>
      <phase duration="10.0" state="y"/>
   </tlLogic>
   <tlLogic id="1201745409" offset="0" programID="0" type="static">
      <phase duration="24.650637368" state="G"/>
      <phase duration="7.98034206098" state="y"/>
   </tlLogic>
   <tlLogic id="1211136497" offset="0" programID="0" type="static">
      <phase duration="5.92263000808" state="GGrr"/>
      <phase duration="9.09655583816" state="yyrr"/>
      <phase duration="5.92263000808" state="rrGG"/>
      <phase duration="9.09655583816" state="rryy"/>
   </tlLogic>
   <tlLogic id="1220020545" offset="0" programID="0" type="static">
      <phase duration="18.7729540606" state="GGrrr"/>
      <phase duration="9.37106824201" state="yyrrr"/>
      <phase duration="18.7729540606" state="rrGrr"/>
      <phase duration="9.37106824201" state="rryrr"/>
      <phase duration="18.7729540606" state="rrrGG"/>
      <phase duration="9.37106824201" state="rrryy"/>
   </tlLogic>
   <tlLogic id="1220020592" offset="0" programID="0" type="static">
      <phase duration="31.2179876736" state="Gr"/>
      <phase duration="8.7657479117" state="yr"/>
      <phase duration="31.2179876736" state="rG"/>
      <phase duration="8.7657479117" state="ry"/>
   </tlLogic>
   <tlLogic id="1220020630" offset="0" programID="0" type="static">
      <phase duration="23.0676321396" state="Gr"/>
      <phase duration="8.42069811107" state="yr"/>
      <phase duration="23.0676321396" state="rG"/>
      <phase duration="8.42069811107" state="ry"/>
   </tlLogic>
   <tlLogic id="1220020656" offset="0" programID="0" type="static">
      <phase duration="25.9530164261" state="GGrr"/>
      <phase duration="9.77634340676" state="yyrr"/>
      <phase duration="25.9530164261" state="rrGG"/>
      <phase duration="9.77634340676" state="rryy"/>
   </tlLogic>
   <tlLogic id="1220020673" offset="0" programID="0" type="static">
      <phase duration="39.8988376669" state="GGGrrrrrr"/>
      <phase duration="9.14901413916" state="yyyrrrrrr"/>
      <phase duration="39.8988376669" state="rrrGGGrrr"/>
      <phase duration="9.14901413916" state="rrryyyrrr"/>
      <phase duration="39.8988376669" state="rrrrrrGGG"/>
      <phase duration="9.14901413916" state="rrrrrryyy"/>
   </tlLogic>
   <tlLogic id="1220020679" offset="0" programID="0" type="static">
      <phase duration="23.0555756105" state="GGrr"/>
      <phase duration="8.01505278597" state="yyrr"/>
      <phase duration="23.0555756105" state="rrGG"/>
      <phase duration="8.01505278597" state="rryy"/>
   </tlLogic>
   <tlLogic id="1229522502" offset="0" programID="0" type="static">
      <phase duration="15.5906806968" state="Gr"/>
      <phase duration="5.55402511346" state="yr"/>
      <phase duration="15.5906806968" state="rG"/>
      <phase duration="5.55402511346" state="ry"/>
   </tlLogic>
   <tlLogic id="1229522554" offset="0" programID="0" type="static">
      <phase duration="25.4229635276" state="G"/>
      <phase duration="6.23111313543" state="y"/>
   </tlLogic>
   <tlLogic id="1252265070" offset="0" programID="0" type="static"/>
   <tlLogic id="1252285093" offset="0" programID="0" type="static">
      <phase duration="17.015742095" state="Gr"/>
      <phase duration="3.56613130129" state="yr"/>
      <phase duration="17.015742095" state="rG"/>
      <phase duration="3.56613130129" state="ry"/>
   </tlLogic>
   <tlLogic id="1252285105" offset="0" programID="0" type="static">
      <phase duration="5.63057372792" state="G"/>
      <phase duration="5.5475521951" state="y"/>
   </tlLogic>
   <tlLogic id="1252285133" offset="0" programID="0" type="static">
      <phase duration="12.285919535" state="Gr"/>
      <phase duration="10.0" state="yr"/>
      <phase duration="12.285919535" state="rG"/>
      <phase duration="10.0" state="ry"/>
   </tlLogic>
   <tlLogic id="1252285138" offset="0" programID="0" type="static">
      <phase duration="23.6344272182" state="G"/>
      <phase duration="4.38676766352" state="y"/>
   </tlLogic>
   <tlLogic id="1252285140" offset="0" programID="0" type="static">
      <phase duration="22.6338476753" state="Gr"/>
      <phase duration="8.80827890022" state="yr"/>
      <phase duration="22.6338476753" state="rG"/>
      <phase duration="8.80827890022" state="ry"/>
   </tlLogic>
   <tlLogic id="1258258237" offset="0" programID="0" type="static">
      <phase duration="5.64766143683" state="GGr"/>
      <phase duration="10.0" state="yyr"/>
      <phase duration="5.64766143683" state="rrG"/>
      <phase duration="10.0" state="rry"/>
   </tlLogic>
   <tlLogic id="1271504738" offset="0" programID="0" type="static">
      <phase duration="23.6526692253" state="Gr"/>
      <phase duration="4.80930766576" state="yr"/>
      <phase duration="23.6526692253" state="rG"/>
      <phase duration="4.80930766576" state="ry"/>
   </tlLogic>
   <tlLogic id="1271504748" offset="0" programID="0" type="static">
      <phase duration="22.8514467875" state="Gr"/>
      <phase duration="4.87907046782" state="yr"/>
      <phase duration="22.8514467875" state="rG"/>
      <phase duration="4.87907046782" state="ry"/>
   </tlLogic>
   <tlLogic id="1271504755" offset="0" programID="0" type="static">
      <phase duration="32.6300571317" state="GGrrr"/>
      <phase duration="10.0" state="yyrrr"/>
      <phase duration="32.6300571317" state="rrGrr"/>
      <phase duration="10.0" state="rryrr"/>
      <phase duration="32.6300571317" state="rrrGG"/>
      <phase duration="10.0" state="rrryy"/>
   </tlLogic>
   <tlLogic id="1271504758" offset="0" programID="0" type="static">
      <phase duration="37.0762622578" state="G"/>
      <phase duration="10.0" state="y"/>
   </tlLogic>
   <tlLogic id="1271504763" offset="0" programID="0" type="static">
      <phase duration="38.8723905636" state="G"/>
      <phase duration="10.0" state="y"/>
   </tlLogic>
   <tlLogic id="1271504764" offset="0" programID="0" type="static">
      <phase duration="22.3620462789" state="G"/>
      <phase duration="7.14213826931" state="y"/>
   </tlLogic>
   <tlLogic id="1271504767" offset="0" programID="0" type="static">
      <phase duration="6.0" state="G"/>
      <phase duration="9.3265345796" state="y"/>
   </tlLogic>
   <tlLogic id="1271504768" offset="0" programID="0" type="static">
      <phase duration="35.0970826192" state="Gr"/>
      <phase duration="6.63740547322" state="yr"/>
      <phase duration="35.0970826192" state="rG"/>
      <phase duration="6.63740547322" state="ry"/>
   </tlLogic>
   <tlLogic id="1271504770" offset="0" programID="0" type="static">
      <phase duration="7.63896785179" state="Gr"/>
      <phase duration="10.0" state="yr"/>
      <phase duration="7.63896785179" state="rG"/>
      <phase duration="10.0" state="ry"/>
   </tlLogic>
   <tlLogic id="1271504774" offset="0" programID="0" type="static">
      <phase duration="24.2121834108" state="G"/>
      <phase duration="9.18088279122" state="y"/>
   </tlLogic>
   <tlLogic id="1271504783" offset="0" programID="0" type="static">
      <phase duration="8.54789920902" state="Gr"/>
      <phase duration="7.09204857323" state="yr"/>
      <phase duration="8.54789920902" state="rG"/>
      <phase duration="7.09204857323" state="ry"/>
   </tlLogic>
   <tlLogic id="1271504795" offset="0" programID="0" type="static">
      <phase duration="24.0897754857" state="G"/>
      <phase duration="9.5264861108" state="y"/>
   </tlLogic>
   <tlLogic id="1271504797" offset="0" programID="0" type="static">
      <phase duration="33.4373247022" state="Gr"/>
      <phase duration="4.0" state="yr"/>
      <phase duration="33.4373247022" state="rG"/>
      <phase duration="4.0" state="ry"/>
   </tlLogic>
   <tlLogic id="1271504801" offset="0" programID="0" type="static">
      <phase duration="16.2830659773" state="G"/>
      <phase duration="7.97719836884" state="y"/>
   </tlLogic>
   <tlLogic id="1271504812" offset="0" programID="0" type="static">
      <phase duration="28.0372056135" state="G"/>
      <phase duration="9.5539466952" state="y"/>
   </tlLogic>
   <tlLogic id="1271504813" offset="0" programID="0" type="static">
      <phase duration="20.2302092932" state="G"/>
      <phase duration="4.17541833526" state="y"/>
   </tlLogic>
   <tlLogic id="1271504814" offset="0" programID="0" type="static">
      <phase duration="37.9747261911" state="G"/>
      <phase duration="3.53380613354" state="y"/>
   </tlLogic>
   <tlLogic id="1271504815" offset="0" programID="0" type="static">
      <phase duration="9.60127178778" state="Gr"/>
      <phase duration="9.94030609328" state="yr"/>
      <phase duration="9.60127178778" state="rG"/>
      <phase duration="9.94030609328" state="ry"/>
   </tlLogic>
   <tlLogic id="1271504816" offset="0" programID="0" type="static">
      <phase duration="12.821187871" state="G"/>
      <phase duration="10.0" state="y"/>
   </tlLogic>
   <tlLogic id="1271504822" offset="0" programID="0" type="static">
      <phase duration="19.2640361638" state="G"/>
      <phase duration="5.60164308901" state="y"/>
   </tlLogic>
   <tlLogic id="1271504824" offset="0" programID="0" type="static">
      <phase duration="21.4943376597" state="G"/>
      <phase duration="4.63677678978" state="y"/>
   </tlLogic>
   <tlLogic id="1271504828" offset="0" programID="0" type="static">
      <phase duration="13.1899074926" state="GGrrr"/>
      <phase duration="8.54006667576" state="yyrrr"/>
      <phase duration="13.1899074926" state="rrGrr"/>
      <phase duration="8.54006667576" state="rryrr"/>
      <phase duration="13.1899074926" state="rrrGG"/>
      <phase duration="8.54006667576" state="rrryy"/>
   </tlLogic>
   <tlLogic id="1271504829" offset="0" programID="0" type="static">
      <phase duration="31.9189589958" state="Gr"/>
      <phase duration="9.48919217936" state="yr"/>
      <phase duration="31.9189589958" state="rG"/>
      <phase duration="9.48919217936" state="ry"/>
   </tlLogic>
   <tlLogic id="1271504831" offset="0" programID="0" type="static">
      <phase duration="19.1153472281" state="G"/>
      <phase duration="2.3373239704" state="y"/>
   </tlLogic>
   <tlLogic id="1271504841" offset="0" programID="0" type="static">
      <phase duration="28.8883563789" state="G"/>
      <phase duration="10.0" state="y"/>
   </tlLogic>
   <tlLogic id="1271504842" offset="0" programID="0" type="static">
      <phase duration="11.7329485312" state="G"/>
      <phase duration="9.94444744733" state="y"/>
   </tlLogic>
   <tlLogic id="1271504843" offset="0" programID="0" type="static">
      <phase duration="15.6541814677" state="Gr"/>
      <phase duration="9.23382119026" state="yr"/>
      <phase duration="15.6541814677" state="rG"/>
      <phase duration="9.23382119026" state="ry"/>
   </tlLogic>
   <tlLogic id="1271504844" offset="0" programID="0" type="static">
      <phase duration="30.4672136401" state="G"/>
      <phase duration="9.63333002081" state="y"/>
   </tlLogic>
   <tlLogic id="1271504845" offset="0" programID="0" type="static">
      <phase duration="39.2623420279" state="G"/>
      <phase duration="2.97193629699" state="y"/>
   </tlLogic>
   <tlLogic id="1271504850" offset="0" programID="0" type="static">
      <phase duration="23.487501383" state="Gr"/>
      <phase duration="7.62707033009" state="yr"/>
      <phase duration="23.487501383" state="rG"/>
      <phase duration="7.62707033009" state="ry"/>
   </tlLogic>
   <tlLogic id="1271504852" offset="0" programID="0" type="static">
      <phase duration="17.9713920033" state="G"/>
      <phase duration="9.4529276984" state="y"/>
   </tlLogic>
   <tlLogic id="1271504855" offset="0" programID="0" type="static">
      <phase duration="13.838529682" state="Gr"/>
      <phase duration="8.36237994865" state="yr"/>
      <phase duration="13.838529682" state="rG"/>
      <phase duration="8.36237994865" state="ry"/>
   </tlLogic>
   <tlLogic id="1271504861" offset="0" programID="0" type="static">
      <phase duration="25.5791691599" state="G"/>
      <phase duration="5.0686030038" state="y"/>
   </tlLogic>
   <tlLogic id="1271504868" offset="0" programID="0" type="static">
      <phase duration="3.10130956615" state="Gr"/>
      <phase duration="9.47718482431" state="yr"/>
      <phase duration="3.10130956615" state="rG"/>
      <phase duration="9.47718482431" state="ry"/>
   </tlLogic>
   <tlLogic id="1271504871" offset="0" programID="0" type="static">
      <phase duration="15.0469474255" state="GGrr"/>
      <phase duration="5.28504780269" state="yyrr"/>
      <phase duration="15.0469474255" state="rrGG"/>
      <phase duration="5.28504780269" state="rryy"/>
   </tlLogic>
   <tlLogic id="1271504872" offset="0" programID="0" type="static">
      <phase duration="11.764990972" state="G"/>
      <phase duration="7.95247248377" state="y"/>
   </tlLogic>
   <tlLogic id="1271504875" offset="0" programID="0" type="static">
      <phase duration="25.5500346027" state="G"/>
      <phase duration="6.79514641502" state="y"/>
   </tlLogic>
   <tlLogic id="1271504881" offset="0" programID="0" type="static">
      <phase duration="22.3260799706" state="GGrrr"/>
      <phase duration="4.96293214433" state="yyrrr"/>
      <phase duration="22.3260799706" state="rrGrr"/>
      <phase duration="4.96293214433" state="rryrr"/>
      <phase duration="22.3260799706" state="rrrGG"/>
      <phase duration="4.96293214433" state="rrryy"/>
   </tlLogic>
   <tlLogic id="1271504883" offset="0" programID="0" type="static">
      <phase duration="36.0220216076" state="GGrrr"/>
      <phase duration="10.0" state="yyrrr"/>
      <phase duration="36.0220216076" state="rrGrr"/>
      <phase duration="10.0" state="rryrr"/>
      <phase duration="36.0220216076" state="rrrGG"/>
      <phase duration="10.0" state="rrryy"/>
   </tlLogic>
   <tlLogic id="1271504887" offset="0" programID="0" type="static">
      <phase duration="35.590478449" state="G"/>
      <phase duration="7.50070535619" state="y"/>
   </tlLogic>
   <tlLogic id="1271504889" offset="0" programID="0" type="static">
      <phase duration="28.2579693876" state="Gr"/>
      <phase duration="4.13842394842" state="yr"/>
      <phase duration="28.2579693876" state="rG"/>
      <phase duration="4.13842394842" state="ry"/>
   </tlLogic>
   <tlLogic id="1271504893" offset="0" programID="0" type="static">
      <phase duration="4.69439576398" state="GGrrr"/>
      <phase duration="10.0" state="yyrrr"/>
      <phase duration="4.69439576398" state="rrGrr"/>
      <phase duration="10.0" state="rryrr"/>
      <phase duration="4.69439576398" state="rrrGG"/>
      <phase duration="10.0" state="rrryy"/>
   </tlLogic>
   <tlLogic id="1271504895" offset="0" programID="0" type="static">
      <phase duration="27.4652697471" state="GGrrr"/>
      <phase duration="3.29589292286" state="yyrrr"/>
      <phase duration="27.4652697471" state="rrGrr"/>
      <phase duration="3.29589292286" state="rryrr"/>
      <phase duration="27.4652697471" state="rrrGG"/>
      <phase duration="3.29589292286" state="rrryy"/>
   </tlLogic>
   <tlLogic id="1271504899" offset="0" programID="0" type="static">
      <phase duration="28.4054549416" state="G"/>
      <phase duration="9.65576123738" state="y"/>
   </tlLogic>
   <tlLogic id="1271504907" offset="0" programID="0" type="static">
      <phase duration="18.1240887467" state="G"/>
      <phase duration="10.0" state="y"/>
   </tlLogic>
   <tlLogic id="1271504910" offset="0" programID="0" type="static">
      <phase duration="3.88596521777" state="Gr"/>
      <phase duration="6.5317791535" state="yr"/>
      <phase duration="3.88596521777" state="rG"/>
      <phase duration="6.5317791535" state="ry"/>
   </tlLogic>
   <tlLogic id="1271504911" offset="0" programID="0" type="static">
      <phase duration="38.2118508314" state="G"/>
      <phase duration="9.93808068" state="y"/>
   </tlLogic>
   <tlLogic id="1271504913" offset="0" programID="0" type="static">
      <phase duration="9.76867520503" state="GGrrr"/>
      <phase duration="7.08707842141" state="yyrrr"/>
      <phase duration="9.76867520503" state="rrGGr"/>
      <phase duration="7.08707842141" state="rryyr"/>
      <phase duration="9.76867520503" state="rrrrG"/>
      <phase duration="7.08707842141" state="rrrry"/>
   </tlLogic>
   <tlLogic id="1271504914" offset="0" programID="0" type="static">
      <phase duration="36.3202158671" state="G"/>
      <phase duration="7.70181490811" state="y"/>
   </tlLogic>
   <tlLogic id="1299369677" offset="0" programID="0" type="static">
      <phase duration="30.6694010544" state="G"/>
      <phase duration="6.69263198163" state="y"/>
   </tlLogic>
   <tlLogic id="1299369678" offset="0" programID="0" type="static">
      <phase duration="26.6741712332" state="G"/>
      <phase duration="10.0" state="y"/>
   </tlLogic>
   <tlLogic id="1299369679" offset="0" programID="0" type="static">
      <phase duration="14.9042661951" state="G"/>
      <phase duration="7.97714863172" state="y"/>
   </tlLogic>
   <tlLogic id="1299369684" offset="0" programID="0" type="static">
      <phase duration="16.1443447728" state="G"/>
      <phase duration="7.09647431303" state="y"/>
   </tlLogic>
   <tlLogic id="1299369686" offset="0" programID="0" type="static">
      <phase duration="32.3228940292" state="G"/>
      <phase duration="1.14915042523" state="y"/>
   </tlLogic>
   <tlLogic id="1299369691" offset="0" programID="0" type="static">
      <phase duration="5.46517974688" state="Gr"/>
      <phase duration="9.73872071312" state="yr"/>
      <phase duration="5.46517974688" state="rG"/>
      <phase duration="9.73872071312" state="ry"/>
   </tlLogic>
   <tlLogic id="1299369697" offset="0" programID="0" type="static">
      <phase duration="22.6294138901" state="G"/>
      <phase duration="5.52025602503" state="y"/>
   </tlLogic>
   <tlLogic id="1312440651" offset="0" programID="0" type="static">
      <phase duration="30.6896788411" state="G"/>
      <phase duration="8.78727134456" state="y"/>
   </tlLogic>
   <tlLogic id="1353566368" offset="0" programID="0" type="static">
      <phase duration="19.790118632" state="G"/>
      <phase duration="9.03997829099" state="y"/>
   </tlLogic>
   <tlLogic id="1353566371" offset="0" programID="0" type="static">
      <phase duration="28.7670736648" state="G"/>
      <phase duration="9.0453404227" state="y"/>
   </tlLogic>
   <tlLogic id="1360932319" offset="0" programID="0" type="static"/>
   <tlLogic id="1366801194" offset="0" programID="0" type="static"/>
   <tlLogic id="1366801217" offset="0" programID="0" type="static">
      <phase duration="10.0757006905" state="G"/>
      <phase duration="10.0" state="y"/>
   </tlLogic>
   <tlLogic id="1366801262" offset="0" programID="0" type="static">
      <phase duration="40.0" state="G"/>
      <phase duration="2.18366799709" state="y"/>
   </tlLogic>
   <tlLogic id="1366801267" offset="0" programID="0" type="static">
      <phase duration="15.8333505686" state="Grr"/>
      <phase duration="3.42294210637" state="yrr"/>
      <phase duration="15.8333505686" state="rGr"/>
      <phase duration="3.42294210637" state="ryr"/>
      <phase duration="15.8333505686" state="rrG"/>
      <phase duration="3.42294210637" state="rry"/>
   </tlLogic>
   <tlLogic id="1492679675" offset="0" programID="0" type="static">
      <phase duration="19.8325377506" state="Gr"/>
      <phase duration="10.0" state="yr"/>
      <phase duration="19.8325377506" state="rG"/>
      <phase duration="10.0" state="ry"/>
   </tlLogic>
   <tlLogic id="1492679678" offset="0" programID="0" type="static">
      <phase duration="30.3989144604" state="Gr"/>
      <phase duration="9.45674509978" state="yr"/>
      <phase duration="30.3989144604" state="rG"/>
      <phase duration="9.45674509978" state="ry"/>
   </tlLogic>
   <tlLogic id="1492679687" offset="0" programID="0" type="static">