<?xml version="1.0" ?>
<tlLogics>
   <tlLogic id="1000099468" offset="0" programID="0" type="static">
      <phase duration="11.9064807757" state="G"/>
      <phase duration="7.90965654684" state="y"/>
   </tlLogic>
   <tlLogic id="1000099475" offset="0" programID="0" type="static">
      <phase duration="21.3156271212" state="GG"/>
      <phase duration="6.90969572894" state="yy"/>
   </tlLogic>
   <tlLogic id="1000099520" offset="0" programID="0" type="static">
      <phase duration="15.6008479862" state="G"/>
      <phase duration="6.61253233109" state="y"/>
   </tlLogic>
   <tlLogic id="1000099544" offset="0" programID="0" type="static">
      <phase duration="4.60379955627" state="GGrrr"/>
      <phase duration="7.18948814037" state="yyrrr"/>
      <phase duration="4.60379955627" state="rrGGr"/>
      <phase duration="7.18948814037" state="rryyr"/>
      <phase duration="4.60379955627" state="rrrrG"/>
      <phase duration="7.18948814037" state="rrrry"/>
   </tlLogic>
   <tlLogic id="1000099553" offset="0" programID="0" type="static">
      <phase duration="19.1034296755" state="Gr"/>
      <phase duration="8.42428297427" state="yr"/>
      <phase duration="19.1034296755" state="rG"/>
      <phase duration="8.42428297427" state="ry"/>
   </tlLogic>
   <tlLogic id="1000099591" offset="0" programID="0" type="static">
      <phase duration="12.4442211399" state="GGrr"/>
      <phase duration="4.77557741448" state="yyrr"/>
      <phase duration="12.4442211399" state="rrGG"/>
      <phase duration="4.77557741448" state="rryy"/>
   </tlLogic>
   <tlLogic id="1000099607" offset="0" programID="0" type="static">
      <phase duration="16.5418996087" state="GGr"/>
      <phase duration="7.59006615713" state="yyr"/>
      <phase duration="16.5418996087" state="rrG"/>
      <phase duration="7.59006615713" state="rry"/>
   </tlLogic>
   <tlLogic id="1000099724" offset="0" programID="0" type="static">
      <phase duration="13.4466720533" state="Grrr"/>
      <phase duration="3.37650444644" state="yrrr"/>
      <phase duration="13.4466720533" state="rGGG"/>
      <phase duration="3.37650444644" state="ryyy"/>
   </tlLogic>
   <tlLogic id="1000099741" offset="0" programID="0" type="static">
      <phase duration="38.5781527166" state="GGrr"/>
      <phase duration="3.67689263275" state="yyrr"/>
      <phase duration="38.5781527166" state="rrGG"/>
      <phase duration="3.67689263275" state="rryy"/>
   </tlLogic>
   <tlLogic id="1000099788" offset="0" programID="0" type="static">
      <phase duration="27.7129628875" state="GGrr"/>
      <phase duration="5.72044212285" state="yyrr"/>
      <phase duration="27.7129628875" state="rrGG"/>
      <phase duration="5.72044212285" state="rryy"/>
   </tlLogic>
   <tlLogic id="1012326820" offset="0" programID="0" type="static">
      <phase duration="13.589764342" state="G"/>
      <phase duration="7.24432195746" state="y"/>
   </tlLogic>
   <tlLogic id="1037290808" offset="0" programID="0" type="static">
      <phase duration="31.7071941232" state="GGGrrrrrr"/>
      <phase duration="4.56514094101" state="yyyrrrrrr"/>
      <phase duration="31.7071941232" state="rrrGGGrrr"/>
      <phase duration="4.56514094101" state="rrryyyrrr"/>
      <phase duration="31.7071941232" state="rrrrrrGGG"/>
      <phase duration="4.56514094101" state="rrrrrryyy"/>
   </tlLogic>
   <tlLogic id="1037290915" offset="0" programID="0" type="static">
      <phase duration="12.5851187712" state="GGrrr"/>
      <phase duration="8.64998906016" state="yyrrr"/>
      <phase duration="12.5851187712" state="rrGGG"/>
      <phase duration="8.64998906016" state="rryyy"/>
   </tlLogic>
   <tlLogic id="1037290944" offset="0" programID="0" type="static">
      <phase duration="19.2565610777" state="G"/>
      <phase duration="3.15447406721" state="y"/>
   </tlLogic>
   <tlLogic id="1040964328" offset="0" programID="0" type="static">
      <phase duration="13.1766588409" state="Gr"/>
      <phase duration="8.02049119475" state="yr"/>
      <phase duration="13.1766588409" state="rG"/>
      <phase duration="8.02049119475" state="ry"/>
   </tlLogic>
   <tlLogic id="1040964333" offset="0" programID="0" type="static">
      <phase duration="36.619760497" state="Gr"/>
      <phase duration="5.10780318669" state="yr"/>
      <phase duration="36.619760497" state="rG"/>
      <phase duration="5.10780318669" state="ry"/>
   </tlLogic>
   <tlLogic id="1045044692" offset="0" programID="0" type="static">
      <phase duration="11.4030305341" state="Gr"/>
      <phase duration="2.66988120082" state="yr"/>
      <phase duration="11.4030305341" state="rG"/>
      <phase duration="2.66988120082" state="ry"/>
   </tlLogic>
   <tlLogic id="1045044715" offset="0" programID="0" type="static">
      <phase duration="28.0082463166" state="Gr"/>
      <phase duration="5.47097291882" state="yr"/>
      <phase duration="28.0082463166" state="rG"/>
      <phase duration="5.47097291882" state="ry"/>
   </tlLogic>
   <tlLogic id="1045044750" offset="0" programID="0" type="static">
      <phase duration="31.1303175246" state="Gr"/>
      <phase duration="7.94873339709" state="yr"/>
      <phase duration="31.1303175246" state="rG"/>
      <phase duration="7.94873339709" state="ry"/>
   </tlLogic>
   <tlLogic id="1045044803" offset="0" programID="0" type="static">
      <phase duration="31.2272147719" state="Gr"/>
      <phase duration="3.64945339319" state="yr"/>
      <phase duration="31.2272147719" state="rG"/>
      <phase duration="3.64945339319" state="ry"/>
   </tlLogic>
   <tlLogic id="1109589944" offset="0" programID="0" type="static">
      <phase duration="7.09816503975" state="GGGrrrrrr"/>
      <phase duration="8.9722634131" state="yyyrrrrrr"/>
      <phase duration="7.09816503975" state="rrrGGGrrr"/>
      <phase duration="8.9722634131" state="rrryyyrrr"/>
      <phase duration="7.09816503975" state="rrrrrrGGG"/>
      <phase duration="8.9722634131" state="rrrrrryyy"/>
   </tlLogic>
   <tlLogic id="1150667539" offset="0" programID="0" type="static">
      <phase duration="18.9600244807" state="G"/>
      <phase duration="8.71168039917" state="y"/>
   </tlLogic>
   <tlLogic id="1150667546" offset="0" programID="0" type="static">
      <phase duration="27.7369823099" state="G"/>
      <phase duration="6.15077541336" state="y"/>
   </tlLogic>
   <tlLogic id="1150667552" offset="0" programID="0" type="static">
      <phase duration="20.7524063647" state="Gr"/>
      <phase duration="8.08177424188" state="yr"/>
      <phase duration="20.7524063647" state="rG"/>
      <phase duration="8.08177424188" state="ry"/>
   </tlLogic>
   <tlLogic id="1150667560" offset="0" programID="0" type="static">
      <phase duration="7.63582434243" state="G"/>
      <phase duration="3.81870149791" state="y"/>
   </tlLogic>
   <tlLogic id="1150667568" offset="0" programID="0" type="static"/>
   <tlLogic id="1150667586" offset="0" programID="0" type="static">
      <phase duration="27.4973402056" state="G"/>
      <phase duration="7.67691628886" state="y"/>
   </tlLogic>
   <tlLogic id="1150667603" offset="0" programID="0" type="static">
      <phase duration="15.4094307022" state="Gr"/>
      <phase duration="6.79163802878" state="yr"/>
      <phase duration="15.4094307022" state="rG"/>
      <phase duration="6.79163802878" state="ry"/>
   </tlLogic>
   <tlLogic id="1156723779" offset="0" programID="0" type="static">
      <phase duration="22.3660940211" state="GGrrr"/>
      <phase duration="5.50962598237" state="yyrrr"/>
      <phase duration="22.3660940211" state="rrGrr"/>
      <phase duration="5.50962598237" state="rryrr"/>
      <phase duration="22.3660940211" state="rrrGG"/>
      <phase duration="5.50962598237" state="rrryy"/>
   </tlLogic>
   <tlLogic id="1156723834" offset="0" programID="0" type="static">
      <phase duration="31.8418769042" state="G"/>
      <phase duration="6.23694713328" state="y"/>
   </tlLogic>
   <tlLogic id="1157698150" offset="0" programID="0" type="static">
      <phase duration="20.7069638988" state="G"/>
      <phase duration="9.58865319481" state="y"/>
   </tlLogic>
   <tlLogic id="1200892937" offset="0" programID="0" type="static">
      <phase duration="32.1106897422" state="G"/>
      <phase duration="7.30529738291" state="y"/>
   </tlLogic>
   <tlLogic id="1201745377" offset="0" programID="0" type="static">
      <phase duration="9.40795400637" state="G"/>
      <phase duration="7.1987423848" state="y"/>
   </tlLogic>
   <tlLogic id="1211136595" offset="0" programID="0" type="static">
      <phase duration="28.8931568421" state="G"/>
      <phase duration="8.8205920222" state="y"/>
   </tlLogic>
   <tlLogic id="1211136870" offset="0" programID="0" type="static">
      <phase duration="7.83340872352" state="GGrr"/>
      <phase duration="7.81908813984" state="yyrr"/>
      <phase duration="7.83340872352" state="rrGG"/>
      <phase duration="7.81908813984" state="rryy"/>
   </tlLogic>
   <tlLogic id="1220020545" offset="0" programID="0" type="static">
      <phase duration="17.0738506402" state="GGrrr"/>
      <phase duration="3.01449348309" state="yyrrr"/>
      <phase duration="17.0738506402" state="rrGrr"/>
      <phase duration="3.01449348309" state="rryrr"/>
      <phase duration="17.0738506402" state="rrrGG"/>
      <phase duration="3.01449348309" state="rrryy"/>
   </tlLogic>
   <tlLogic id="1220020630" offset="0" programID="0" type="static">
      <phase duration="26.4815792379" state="Gr"/>
      <phase duration="4.31752610508" state="yr"/>
      <phase duration="26.4815792379" state="rG"/>
      <phase duration="4.31752610508" state="ry"/>
   </tlLogic>
   <tlLogic id="1220020656" offset="0" programID="0" type="static">
      <phase duration="24.3385014859" state="GGrr"/>
      <phase duration="8.03002482325" state="yyrr"/>
      <phase duration="24.3385014859" state="rrGG"/>
      <phase duration="8.03002482325" state="rryy"/>
   </tlLogic>
   <tlLogic id="1220020673" offset="0" programID="0" type="static">
      <phase duration="29.1180595035" state="GGGrrrrrr"/>
      <phase duration="6.17009739858" state="yyyrrrrrr"/>
      <phase duration="29.1180595035" state="rrrGGGrrr"/>
      <phase duration="6.17009739858" state="rrryyyrrr"/>
      <phase duration="29.1180595035" state="rrrrrrGGG"/>
      <phase duration="6.17009739858" state="rrrrrryyy"/>
   </tlLogic>
   <tlLogic id="1220020679" offset="0" programID="0" type="static">
      <phase duration="14.7491510475" state="GGrr"/>
      <phase duration="5.70791185473" state="yyrr"/>
      <phase duration="14.7491510475" state="rrGG"/>
      <phase duration="5.70791185473" state="rryy"/>
   </tlLogic>
   <tlLogic id="1229522462" offset="0" programID="0" type="static">
      <phase duration="6.64831502082" state="G"/>
      <phase duration="9.56588110874" state="y"/>
   </tlLogic>
   <tlLogic id="1229522509" offset="0" programID="0" type="static">
      <phase duration="18.9147149923" state="G"/>
      <phase duration="5.62365756452" state="y"/>
   </tlLogic>
   <tlLogic id="1252285079" offset="0" programID="0" type="static">
      <phase duration="35.1484535125" state="Gr"/>
      <phase duration="8.33786634511" state="yr"/>
      <phase duration="35.1484535125" state="rG"/>
      <phase duration="8.33786634511" state="ry"/>
   </tlLogic>
   <tlLogic id="1252285092" offset="0" programID="0" type="static">
      <phase duration="8.99458042799" state="G"/>
      <phase duration="3.52615714746" state="y"/>
   </tlLogic>
   <tlLogic id="1252285093" offset="0" programID="0" type="static">
      <phase duration="17.157797947" state="Gr"/>
      <phase duration="5.16763707086" state="yr"/>
      <phase duration="17.157797947" state="rG"/>
      <phase duration="5.16763707086" state="ry"/>
   </tlLogic>
   <tlLogic id="1252285107" offset="0" programID="0" type="static">
      <phase duration="19.922932113" state="G"/>
      <phase duration="6.66091682804" state="y"/>
   </tlLogic>
   <tlLogic id="1252285140" offset="0" programID="0" type="static">
      <phase duration="27.4152276898" state="Gr"/>
      <phase duration="3.64213042903" state="yr"/>
      <phase duration="27.4152276898" state="rG"/>
      <phase duration="3.64213042903" state="ry"/>
   </tlLogic>
   <tlLogic id="1258258237" offset="0" programID="0" type="static">
      <phase duration="26.5843741575" state="GGr"/>
      <phase duration="5.77355873803" state="yyr"/>
      <phase duration="26.5843741575" state="rrG"/>
      <phase duration="5.77355873803" state="rry"/>
   </tlLogic>
   <tlLogic id="1264255381" offset="0" programID="0" type="static">
      <phase duration="26.6995585945" state="GGGrrrrrr"/>
      <phase duration="8.28917790617" state="yyyrrrrrr"/>
      <phase duration="26.6995585945" state="rrrGGGrrr"/>
      <phase duration="8.28917790617" state="rrryyyrrr"/>
      <phase duration="26.6995585945" state="rrrrrrGGG"/>
      <phase duration="8.28917790617" state="rrrrrryyy"/>
   </tlLogic>
   <tlLogic id="1271504738" offset="0" programID="0" type="static">
      <phase duration="30.4334154741" state="Gr"/>
      <phase duration="9.52846946954" state="yr"/>
      <phase duration="30.4334154741" state="rG"/>
      <phase duration="9.52846946954" state="ry"/>
   </tlLogic>
   <tlLogic id="1271504748" offset="0" programID="0" type="static">
      <phase duration="19.4889928505" state="Gr"/>
      <phase duration="6.07299240727" state="yr"/>
      <phase duration="19.4889928505" state="rG"/>
      <phase duration="6.07299240727" state="ry"/>
   </tlLogic>
   <tlLogic id="1271504755" offset="0" programID="0" type="static">
      <phase duration="20.7228414607" state="GGrrr"/>
      <phase duration="4.73423177651" state="yyrrr"/>
      <phase duration="20.7228414607" state="rrGrr"/>
      <phase duration="4.73423177651" state="rryrr"/>
      <phase duration="20.7228414607" state="rrrGG"/>
      <phase duration="4.73423177651" state="rrryy"/>
   </tlLogic>
   <tlLogic id="1271504757" offset="0" programID="0" type="static">
      <phase duration="32.7086634975" state="GGrrr"/>
      <phase duration="3.65001368939" state="yyrrr"/>
      <phase duration="32.7086634975" state="rrGrr"/>
      <phase duration="3.65001368939" state="rryrr"/>
      <phase duration="32.7086634975" state="rrrGG"/>
      <phase duration="3.65001368939" state="rrryy"/>
   </tlLogic>
   <tlLogic id="1271504758" offset="0" programID="0" type="static">
      <phase duration="25.0331472125" state="G"/>
      <phase duration="8.96836206073" state="y"/>
   </tlLogic>
   <tlLogic id="1271504762" offset="0" programID="0" type="static">
      <phase duration="19.7865764471" state="G"/>
      <phase duration="9.20377324528" state="y"/>
   </tlLogic>
   <tlLogic id="1271504763" offset="0" programID="0" type="static">
      <phase duration="25.5036326277" state="G"/>
      <phase duration="4.33230543927" state="y"/>
   </tlLogic>
   <tlLogic id="1271504768" offset="0" programID="0" type="static">
      <phase duration="11.6193907384" state="Gr"/>
      <phase duration="6.90429310335" state="yr"/>
      <phase duration="11.6193907384" state="rG"/>
      <phase duration="6.90429310335" state="ry"/>
   </tlLogic>
   <tlLogic id="1271504774" offset="0" programID="0" type="static">
      <phase duration="18.8954681772" state="G"/>
      <phase duration="6.98183960132" state="y"/>
   </tlLogic>
   <tlLogic id="1271504778" offset="0" programID="0" type="static">
      <phase duration="24.6922267021" state="G"/>
      <phase duration="4.51237966682" state="y"/>
   </tlLogic>
   <tlLogic id="1271504795" offset="0" programID="0" type="static">
      <phase duration="35.9233674933" state="G"/>
      <phase duration="8.81820337051" state="y"/>
   </tlLogic>
   <tlLogic id="1271504797" offset="0" programID="0" type="static">
      <phase duration="32.7237848523" state="Gr"/>
      <phase duration="6.69559573826" state="yr"/>
      <phase duration="32.7237848523" state="rG"/>
      <phase duration="6.69559573826" state="ry"/>
   </tlLogic>
   <tlLogic id="1271504801" offset="0" programID="0" type="static">
      <phase duration="8.32081893613" state="G"/>
      <phase duration="6.83620199237" state="y"/>
   </tlLogic>
   <tlLogic id="1271504803" offset="0" programID="0" type="static">
      <phase duration="22.6065902663" state="G"/>
      <phase duration="3.36849056588" state="y"/>
   </tlLogic>
   <tlLogic id="1271504812" offset="0" programID="0" type="static">
      <phase duration="9.37077268349" state="G"/>
      <phase duration="7.07739981538" state="y"/>
   </tlLogic>
   <tlLogic id="1271504814" offset="0" programID="0" type="static">
      <phase duration="18.5645034719" state="G"/>
      <phase duration="4.60367997373" state="y"/>
   </tlLogic>
   <tlLogic id="1271504815" offset="0" programID="0" type="static">
      <phase duration="17.4791767924" state="Gr"/>
      <phase duration="2.19021277174" state="yr"/>
      <phase duration="17.4791767924" state="rG"/>
      <phase duration="2.19021277174" state="ry"/>
   </tlLogic>
   <tlLogic id="1271504819" offset="0" programID="0" type="static">
      <phase duration="14.7330645092" state="Gr"/>
      <phase duration="7.28070701342" state="yr"/>
      <phase duration="14.7330645092" state="rG"/>
      <phase duration="7.28070701342" state="ry"/>
   </tlLogic>
   <tlLogic id="1271504822" offset="0" programID="0" type="static">
      <phase duration="30.376220349" state="G"/>
      <phase duration="7.22737332021" state="y"/>
   </tlLogic>
   <tlLogic id="1271504824" offset="0" programID="0" type="static">
      <phase duration="9.50758129072" state="G"/>
      <phase duration="1.33388463568" state="y"/>
   </tlLogic>
   <tlLogic id="1271504828" offset="0" programID="0" type="static">
      <phase duration="22.3990463984" state="GGrrr"/>
      <phase duration="8.852112108" state="yyrrr"/>
      <phase duration="22.3990463984" state="rrGrr"/>
      <phase duration="8.852112108" state="rryrr"/>
      <phase duration="22.3990463984" state="rrrGG"/>
      <phase duration="8.852112108" state="rrryy"/>
   </tlLogic>
   <tlLogic id="1271504829" offset="0" programID="0" type="static">
      <phase duration="27.3604811974" state="Gr"/>
      <phase duration="7.74422743405" state="yr"/>
      <phase duration="27.3604811974" state="rG"/>
      <phase duration="7.74422743405" state="ry"/>
   </tlLogic>
   <tlLogic id="1271504830" offset="0" programID="0" type="static">
      <phase duration="7.92572584797" state="GGrrr"/>
      <phase duration="8.27986320412" state="yyrrr"/>
      <phase duration="7.92572584797" state="rrGrr"/>
      <phase duration="8.27986320412" state="rryrr"/>
      <phase duration="7.92572584797" state="rrrGG"/>
      <phase duration="8.27986320412" state="rrryy"/>
   </tlLogic>
   <tlLogic id="1271504831" offset="0" programID="0" type="static">
      <phase duration="29.0494478787" state="G"/>
      <phase duration="3.20383648118" state="y"/>
   </tlLogic>
   <tlLogic id="1271504841" offset="0" programID="0" type="static">
      <phase duration="26.0083547326" state="G"/>
      <phase duration="4.43314514634" state="y"/>
   </tlLogic>
   <tlLogic id="1271504842" offset="0" programID="0" type="static">
      <phase duration="21.7313749093" state="G"/>
      <phase duration="3.98847693677" state="y"/>
   </tlLogic>
   <tlLogic id="1271504844" offset="0" programID="0" type="static">
      <phase duration="7.96561126366" state="G"/>
      <phase duration="6.69056139157" state="y"/>
   </tlLogic>
   <tlLogic id="1271504850" offset="0" programID="0" type="static">
      <phase duration="25.7315043496" state="Gr"/>
      <phase duration="7.35969140334" state="yr"/>
      <phase duration="25.7315043496" state="rG"/>
      <phase duration="7.35969140334" state="ry"/>
   </tlLogic>
   <tlLogic id="1271504852" offset="0" programID="0" type="static">
      <phase duration="7.93631025942" state="G"/>
      <phase duration="6.78114942413" state="y"/>
   </tlLogic>
   <tlLogic id="1271504861" offset="0" programID="0" type="static">
      <phase duration="33.0588519829" state="G"/>
      <phase duration="6.43743614571" state="y"/>
   </tlLogic>
   <tlLogic id="1271504863" offset="0" programID="0" type="static">
      <phase duration="21.6460757769" state="G"/>
      <phase duration="5.22429361103" state="y"/>
   </tlLogic>
   <tlLogic id="1271504872" offset="0" programID="0" type="static">
      <phase duration="2.57170645622" state="G"/>
      <phase duration="5.40137350456" state="y"/>
   </tlLogic>
   <tlLogic id="1271504874" offset="0" programID="0" type="static">
      <phase duration="17.3297541209" state="G"/>
      <phase duration="7.43959123946" state="y"/>
   </tlLogic>
   <tlLogic id="1271504875" offset="0" programID="0" type="static">
      <phase duration="28.7336991273" state="G"/>
      <phase duration="8.68542967671" state="y"/>
   </tlLogic>
   <tlLogic id="1271504876" offset="0" programID="0" type="static">
      <phase duration="14.9331747679" state="G"/>
      <phase duration="9.37211453057" state="y"/>
   </tlLogic>
   <tlLogic id="1271504881" offset="0" programID="0" type="static">
      <phase duration="13.0093349776" state="GGrrr"/>
      <phase duration="7.26454502971" state="yyrrr"/>
      <phase duration="13.0093349776" state="rrGrr"/>
      <phase duration="7.26454502971" state="rryrr"/>
      <phase duration="13.0093349776" state="rrrGG"/>
      <phase duration="7.26454502971" state="rrryy"/>
   </tlLogic>
   <tlLogic id="1271504884" offset="0" programID="0" type="static">
      <phase duration="16.2837765525" state="G"/>
      <phase duration="4.554852068" state="y"/>
   </tlLogic>
   <tlLogic id="1271504887" offset="0" programID="0" type="static">
      <phase duration="29.5584524501" state="G"/>
      <phase duration="5.34107329208" state="y"/>
   </tlLogic>
   <tlLogic id="1271504888" offset="0" programID="0" type="static">
      <phase duration="30.9940879384" state="G"/>
      <phase duration="8.80635618208" state="y"/>
   </tlLogic>
   <tlLogic id="1271504889" offset="0" programID="0" type="static">
      <phase duration="18.2260184934" state="Gr"/>
      <phase duration="3.94357998901" state="yr"/>
      <phase duration="18.2260184934" state="rG"/>
      <phase duration="3.94357998901" state="ry"/>
   </tlLogic>
   <tlLogic id="1271504891" offset="0" programID="0" type="static">
      <phase duration="16.3983314441" state="G"/>
      <phase duration="9.61447600267" state="y"/>
   </tlLogic>
   <tlLogic id="1271504893" offset="0" programID="0" type="static">
      <phase duration="6.57898982394" state="GGrrr"/>
      <phase duration="5.13211786229" state="yyrrr"/>
      <phase duration="6.57898982394" state="rrGrr"/>
      <phase duration="5.13211786229" state="rryrr"/>
      <phase duration="6.57898982394" state="rrrGG"/>
      <phase duration="5.13211786229" state="rrryy"/>
   </tlLogic>
   <tlLogic id="1271504894" offset="0" programID="0" type="static">
      <phase duration="11.2005180314" state="G"/>
      <phase duration="7.69871131064" state="y"/>
   </tlLogic>
   <tlLogic id="1271504898" offset="0" programID="0" type="static">
      <phase duration="16.4918678683" state="Gr"/>
      <phase duration="8.29878226871" state="yr"/>
      <phase duration="16.4918678683" state="rG"/>
      <phase duration="8.29878226871" state="ry"/>
   </tlLogic>
   <tlLogic id="1271504899" offset="0" programID="0" type="static">
      <phase duration="21.5496767922" state="G"/>
      <phase duration="5.14037330414" state="y"/>
   </tlLogic>
   <tlLogic id="1271504907" offset="0" programID="0" type="static">
      <phase duration="29.6145886203" state="G"/>
      <phase duration="2.91991220859" state="y"/>
   </tlLogic>
   <tlLogic id="1271504908" offset="0" programID="0" type="static">
      <phase duration="24.0474860196" state="G"/>
      <phase duration="4.22385691177" state="y"/>
   </tlLogic>
   <tlLogic id="1271504910" offset="0" programID="0" type="static">
      <phase duration="13.2466774638" state="Gr"/>
      <phase duration="9.91715582155" state="yr"/>
      <phase duration="13.2466774638" state="rG"/>
      <phase duration="9.91715582155" state="ry"/>
   </tlLogic>
   <tlLogic id="1271504911" offset="0" programID="0" type="static">
      <phase duration="34.9665360616" state="G"/>
      <phase duration="3.39052092671" state="y"/>
   </tlLogic>
   <tlLogic id="1271504913" offset="0" programID="0" type="static">
      <phase duration="36.1351085711" state="GGrrr"/>
      <phase duration="8.45121565323" state="yyrrr"/>
      <phase duration="36.1351085711" state="rrGGr"/>
      <phase duration="8.45121565323" state="rryyr"/>
      <phase duration="36.1351085711" state="rrrrG"/>
      <phase duration="8.45121565323" state="rrrry"/>
   </tlLogic>
   <tlLogic id="1299369678" offset="0" programID="0" type="static">
      <phase duration="35.1475709529" state="G"/>
      <phase duration="6.16013194073" state="y"/>
   </tlLogic>
   <tlLogic id="1299369684" offset="0" programID="0" type="static">
      <phase duration="31.6325114962" state="G"/>
      <phase duration="4.26312518026" state="y"/>
   </tlLogic>
   <tlLogic id="1299369686" offset="0" programID="0" type="static">
      <phase duration="23.3082537809" state="G"/>
      <phase duration="8.74053886779" state="y"/>
   </tlLogic>
   <tlLogic id="1299369691" offset="0" programID="0" type="static">
      <phase duration="3.51839787097" state="Gr"/>
      <phase duration="8.21471305616" state="yr"/>
      <phase duration="3.51839787097" state="rG"/>
      <phase duration="8.21471305616" state="ry"/>
   </tlLogic>
   <tlLogic id="1299369694" offset="0" programID="0" type="static">
      <phase duration="7.02952967042" state="G"/>
      <phase duration="5.3943275777" state="y"/>
   </tlLogic>
   <tlLogic id="1299369697" offset="0" programID="0" type="static">
      <phase duration="26.4564205186" state="G"/>
      <phase duration="4.87718246069" state="y"/>
   </tlLogic>
   <tlLogic id="1312440651" offset="0" programID="0" type="static">
      <phase duration="23.3595993989" state="G"/>
      <phase duration="6.02733534733" state="y"/>
   </tlLogic>
   <tlLogic id="1312440659" offset="0" programID="0" type="static">
      <phase duration="24.8626757303" state="GGrrr"/>
      <phase duration="5.55462723444" state="yyrrr"/>
      <phase duration="24.8626757303" state="rrGrr"/>
      <phase duration="5.55462723444" state="rryrr"/>
      <phase duration="24.8626757303" state="rrrGG"/>
      <phase duration="5.55462723444" state="rrryy"/>
   </tlLogic>
   <tlLogic id="1312440715" offset="0" programID="0" type="static">
      <phase duration="15.6791805248" state="Gr"/>
      <phase duration="3.62284026704" state="yr"/>
      <phase duration="15.6791805248" state="rG"/>
      <phase duration="3.62284026704" state="ry"/>
   </tlLogic>
   <tlLogic id="1312812204" offset="0" programID="0" type="static">
      <phase duration="26.53058842" state="G"/>
      <phase duration="7.25948523931" state="y"/>
   </tlLogic>
   <tlLogic id="1353566368" offset="0" programID="0" type="static">
      <phase duration="11.2653878707" state="G"/>
      <phase duration="3.82478375574" state="y"/>
   </tlLogic>
   <tlLogic id="1353566371" offset="0" programID="0" type="static">
      <phase duration="24.7612147235" state="G"/>
      <phase duration="5.49213806717" state="y"/>
   </tlLogic>
   <tlLogic id="1366801194" offset="0" programID="0" type="static"/>
   <tlLogic id="1366801200" offset="0" programID="0" type="static">
      <phase duration="19.5583203886" state="Gr"/>
      <phase duration="6.15739149699" state="yr"/>
      <phase duration="19.5583203886" state="rG"/>
      <phase duration="6.15739149699" state="ry"/>
   </tlLogic>
   <tlLogic id="1366801204" offset="0" programID="0" type="static">
      <phase duration="6.33991506278" state="G"/>
      <phase duration="6.82669813852" state="y"/>
   </tlLogic>
   <tlLogic id="1366801262" offset="0" programID="0" type="static">
      <phase duration="35.1433077974" state="G"/>
      <phase duration="8.18278484321" state="y"/>
   </tlLogic>
   <tlLogic id="1492679675" offset="0" programID="0" type="static">
      <phase duration="16.3040352042" state="Gr"/>
      <phase duration="7.71679483878" state="yr"/>
      <phase duration="16.3040352042" state="rG"/>
      <phase duration="7.71679483878" state="ry"/>
   </tlLogic>
   <tlLogic id="1492679687" offset="0" programID="0" type="static">
      <phase duration="6.30808141495" state="Gr"/>
      <phase duration="4.702217695" state="yr"/>
      <phase duration="6.30808141495" state="rG"/>
      <phase duration="4.702217695" state="ry"/>
   </tlLogic>
   <tlLogic id="1492679731" offset="0" programID="0" type="static">
      <phase duration="24.7685630522" state="Gr"/>
      <phase duration="7.07950164354" state="yr"/>
      <phase duration="24.7685630522" state="rG"/>
      <phase duration="7.07950164354" state="ry"/>
   </tlLogic>
   <tlLogic id="1492679733" offset="0" programID="0" type="static">
      <phase duration="11.3064897653" state="Gr"/>
      <phase duration="5.71232934704" state="yr"/>
      <phase duration="11.3064897653" state="rG"/>
      <phase duration="5.71232934704" state="ry"/>
   </tlLogic>
   <tlLogic id="1492679739" offset="0" programID="0" type="static">
      <phase duration="27.300641645" state="G"/>
      <phase duration="4.60014379865" state="y"/>
   </tlLogic>
   <tlLogic id="1492679741" offset="0" programID="0" type="static">
      <phase duration="15.2265388599" state="G"/>
      <phase duration="3.71227189282" state="y"/>
   </tlLogic>
   <tlLogic id="1492679747" offset="0" programID="0" type="static">
      <phase duration="25.5647495739" state="Gr"/>
      <phase duration="5.71991262095" state="yr"/>
      <phase duration="25.5647495739" state="rG"/>
      <phase duration="5.71991262095" state="ry"/>
   </tlLogic>
   <tlLogic id="1492729111" offset="0" programID="0" type="static">