<?xml version="1.0" ?>
<tlLogics>
   <tlLogic id="1000099468" offset="0" programID="0" type="static">
      <phase duration="22.0439877451" state="G"/>
      <phase duration="9.69247090498" state="y"/>
   </tlLogic>
   <tlLogic id="1000099475" offset="0" programID="0" type="static">
      <phase duration="12.8214915383" state="GG"/>
      <phase duration="6.05316591458" state="yy"/>
   </tlLogic>
   <tlLogic id="1000099553" offset="0" programID="0" type="static">
      <phase duration="21.0420486183" state="Gr"/>
      <phase duration="9.40626937596" state="yr"/>
      <phase duration="21.0420486183" state="rG"/>
      <phase duration="9.40626937596" state="ry"/>
   </tlLogic>
   <tlLogic id="1000099591" offset="0" programID="0" type="static">
      <phase duration="18.3730801696" state="GGrr"/>
      <phase duration="6.24028652921" state="yyrr"/>
      <phase duration="18.3730801696" state="rrGG"/>
      <phase duration="6.24028652921" state="rryy"/>
   </tlLogic>
   <tlLogic id="1000099607" offset="0" programID="0" type="static">
      <phase duration="15.0289963531" state="GGr"/>
      <phase duration="8.18779839321" state="yyr"/>
      <phase duration="15.0289963531" state="rrG"/>
      <phase duration="8.18779839321" state="rry"/>
   </tlLogic>
   <tlLogic id="1000099724" offset="0" programID="0" type="static">
      <phase duration="13.6035500935" state="Grrr"/>
      <phase duration="5.20183384495" state="yrrr"/>
      <phase duration="13.6035500935" state="rGGG"/>
      <phase duration="5.20183384495" state="ryyy"/>
   </tlLogic>
   <tlLogic id="1000099741" offset="0" programID="0" type="static">
      <phase duration="23.6318537967" state="GGrr"/>
      <phase duration="5.17657273783" state="yyrr"/>
      <phase duration="23.6318537967" state="rrGG"/>
      <phase duration="5.17657273783" state="rryy"/>
   </tlLogic>
   <tlLogic id="1000099788" offset="0" programID="0" type="static">
      <phase duration="28.987362816" state="GGrr"/>
      <phase duration="2.5764396296" state="yyrr"/>
      <phase duration="28.987362816" state="rrGG"/>
      <phase duration="2.5764396296" state="rryy"/>
   </tlLogic>
   <tlLogic id="1012326820" offset="0" programID="0" type="static">
      <phase duration="16.2207508531" state="G"/>
      <phase duration="8.62759734698" state="y"/>
   </tlLogic>
   <tlLogic id="1028832186" offset="0" programID="0" type="static"/>
   <tlLogic id="1028832536" offset="0" programID="0" type="static"/>
   <tlLogic id="1037290808" offset="0" programID="0" type="static">
      <phase duration="15.2380277923" state="GGGrrrrrr"/>
      <phase duration="9.87173276358" state="yyyrrrrrr"/>
      <phase duration="15.2380277923" state="rrrGGGrrr"/>
      <phase duration="9.87173276358" state="rrryyyrrr"/>
      <phase duration="15.2380277923" state="rrrrrrGGG"/>
      <phase duration="9.87173276358" state="rrrrrryyy"/>
   </tlLogic>
   <tlLogic id="1037290863" offset="0" programID="0" type="static">
      <phase duration="12.5103281771" state="GGrr"/>
      <phase duration="7.60762644355" state="yyrr"/>
      <phase duration="12.5103281771" state="rrGG"/>
      <phase duration="7.60762644355" state="rryy"/>
   </tlLogic>
   <tlLogic id="1037290915" offset="0" programID="0" type="static">
      <phase duration="19.6233510655" state="GGrrr"/>
      <phase duration="6.98951894109" state="yyrrr"/>
      <phase duration="19.6233510655" state="rrGGG"/>
      <phase duration="6.98951894109" state="rryyy"/>
   </tlLogic>
   <tlLogic id="1037290944" offset="0" programID="0" type="static">
      <phase duration="20.6460590303" state="G"/>
      <phase duration="2.89090922773" state="y"/>
   </tlLogic>
   <tlLogic id="1040964328" offset="0" programID="0" type="static">
      <phase duration="16.9573961461" state="Gr"/>
      <phase duration="8.20784017884" state="yr"/>
      <phase duration="16.9573961461" state="rG"/>
      <phase duration="8.20784017884" state="ry"/>
   </tlLogic>
   <tlLogic id="1040964333" offset="0" programID="0" type="static">
      <phase duration="30.600515661" state="Gr"/>
      <phase duration="5.12721609758" state="yr"/>
      <phase duration="30.600515661" state="rG"/>
      <phase duration="5.12721609758" state="ry"/>
   </tlLogic>
   <tlLogic id="1045044692" offset="0" programID="0" type="static">
      <phase duration="8.44931648184" state="Gr"/>
      <phase duration="8.54738558353" state="yr"/>
      <phase duration="8.44931648184" state="rG"/>
      <phase duration="8.54738558353" state="ry"/>
   </tlLogic>
   <tlLogic id="1045044715" offset="0" programID="0" type="static">
      <phase duration="31.2041634574" state="Gr"/>
      <phase duration="4.16468082464" state="yr"/>
      <phase duration="31.2041634574" state="rG"/>
      <phase duration="4.16468082464" state="ry"/>
   </tlLogic>
   <tlLogic id="1109589987" offset="0" programID="0" type="static">
      <phase duration="6.12710462069" state="GGrr"/>
      <phase duration="9.38649785679" state="yyrr"/>
      <phase duration="6.12710462069" state="rrGG"/>
      <phase duration="9.38649785679" state="rryy"/>
   </tlLogic>
   <tlLogic id="1125127500" offset="0" programID="0" type="static">
      <phase duration="23.2095028588" state="GG"/>
      <phase duration="7.40045542755" state="yy"/>
   </tlLogic>
   <tlLogic id="1149210260" offset="0" programID="0" type="static">
      <phase duration="11.2197485502" state="Gr"/>
      <phase duration="9.28726525366" state="yr"/>
      <phase duration="11.2197485502" state="rG"/>
      <phase duration="9.28726525366" state="ry"/>
   </tlLogic>
   <tlLogic id="1150667560" offset="0" programID="0" type="static">
      <phase duration="1.75570554473" state="G"/>
      <phase duration="3.39732250671" state="y"/>
   </tlLogic>
   <tlLogic id="1150667568" offset="0" programID="0" type="static"/>
   <tlLogic id="1150667571" offset="0" programID="0" type="static">
      <phase duration="14.4399759299" state="G"/>
      <phase duration="7.83425163701" state="y"/>
   </tlLogic>
   <tlLogic id="1150667586" offset="0" programID="0" type="static">
      <phase duration="28.4541335887" state="G"/>
      <phase duration="8.16055751003" state="y"/>
   </tlLogic>
   <tlLogic id="1150667603" offset="0" programID="0" type="static">
      <phase duration="15.1783250426" state="Gr"/>
      <phase duration="8.10238859793" state="yr"/>
      <phase duration="15.1783250426" state="rG"/>
      <phase duration="8.10238859793" state="ry"/>
   </tlLogic>
   <tlLogic id="1150667608" offset="0" programID="0" type="static">
      <phase duration="22.0921455039" state="Gr"/>
      <phase duration="7.26751300473" state="yr"/>
      <phase duration="22.0921455039" state="rG"/>
      <phase duration="7.26751300473" state="ry"/>
   </tlLogic>
   <tlLogic id="1150667618" offset="0" programID="0" type="static">
      <phase duration="30.2185634573" state="G"/>
      <phase duration="6.39655248508" state="y"/>
   </tlLogic>
   <tlLogic id="1150667622" offset="0" programID="0" type="static">
      <phase duration="17.7747836266" state="G"/>
      <phase duration="4.73254565987" state="y"/>
   </tlLogic>
   <tlLogic id="1156723834" offset="0" programID="0" type="static">
      <phase duration="20.7678405336" state="G"/>
      <phase duration="1.47216492885" state="y"/>
   </tlLogic>
   <tlLogic id="1157698150" offset="0" programID="0" type="static">
      <phase duration="31.8653266931" state="G"/>
      <phase duration="8.17153620032" state="y"/>
   </tlLogic>
   <tlLogic id="1200892960" offset="0" programID="0" type="static">
      <phase duration="27.1443076594" state="Gr"/>
      <phase duration="9.80936075296" state="yr"/>
      <phase duration="27.1443076594" state="rG"/>
      <phase duration="9.80936075296" state="ry"/>
   </tlLogic>
   <tlLogic id="1201745399" offset="0" programID="0" type="static"/>
   <tlLogic id="1211136595" offset="0" programID="0" type="static">
      <phase duration="22.3486626651" state="G"/>
      <phase duration="7.46995552567" state="y"/>
   </tlLogic>
   <tlLogic id="1211136870" offset="0" programID="0" type="static">
      <phase duration="19.0472258156" state="GGrr"/>
      <phase duration="8.80870465088" state="yyrr"/>
      <phase duration="19.0472258156" state="rrGG"/>
      <phase duration="8.80870465088" state="rryy"/>
   </tlLogic>
   <tlLogic id="1220020505" offset="0" programID="0" type="static">
      <phase duration="20.1976835321" state="G"/>
      <phase duration="8.84814974274" state="y"/>
   </tlLogic>
   <tlLogic id="1220020545" offset="0" programID="0" type="static">
      <phase duration="20.83177738" state="GGrrr"/>
      <phase duration="5.23371363889" state="yyrrr"/>
      <phase duration="20.83177738" state="rrGrr"/>
      <phase duration="5.23371363889" state="rryrr"/>
      <phase duration="20.83177738" state="rrrGG"/>
      <phase duration="5.23371363889" state="rrryy"/>
   </tlLogic>
   <tlLogic id="1220020630" offset="0" programID="0" type="static">
      <phase duration="37.1147874201" state="Gr"/>
      <phase duration="4.0058301393" state="yr"/>
      <phase duration="37.1147874201" state="rG"/>
      <phase duration="4.0058301393" state="ry"/>
   </tlLogic>
   <tlLogic id="1220020656" offset="0" programID="0" type="static">
      <phase duration="33.7432484025" state="GGrr"/>
      <phase duration="9.97726004359" state="yyrr"/>
      <phase duration="33.7432484025" state="rrGG"/>
      <phase duration="9.97726004359" state="rryy"/>
   </tlLogic>
   <tlLogic id="1220020673" offset="0" programID="0" type="static">
      <phase duration="15.7227188918" state="GGGrrrrrr"/>
      <phase duration="4.67717068585" state="yyyrrrrrr"/>
      <phase duration="15.7227188918" state="rrrGGGrrr"/>
      <phase duration="4.67717068585" state="rrryyyrrr"/>
      <phase duration="15.7227188918" state="rrrrrrGGG"/>
      <phase duration="4.67717068585" state="rrrrrryyy"/>
   </tlLogic>
   <tlLogic id="1220020679" offset="0" programID="0" type="static">
      <phase duration="15.3113846329" state="GGrr"/>
      <phase duration="6.47886882437" state="yyrr"/>
      <phase duration="15.3113846329" state="rrGG"/>
      <phase duration="6.47886882437" state="rryy"/>
   </tlLogic>
   <tlLogic id="1229522462" offset="0" programID="0" type="static">
      <phase duration="20.2162791637" state="G"/>
      <phase duration="6.12769361352" state="y"/>
   </tlLogic>
   <tlLogic id="1229522509" offset="0" programID="0" type="static">
      <phase duration="16.0689845025" state="G"/>
      <phase duration="5.95556915755" state="y"/>
   </tlLogic>
   <tlLogic id="1229522552" offset="0" programID="0" type="static">
      <phase duration="24.3224927282" state="G"/>
      <phase duration="3.65840187753" state="y"/>
   </tlLogic>
   <tlLogic id="1252265070" offset="0" programID="0" type="static"/>
   <tlLogic id="1252285087" offset="0" programID="0" type="static"/>
   <tlLogic id="1252285092" offset="0" programID="0" type="static">
      <phase duration="16.4659426527" state="G"/>
      <phase duration="5.51413751706" state="y"/>
   </tlLogic>
   <tlLogic id="1252285093" offset="0" programID="0" type="static">
      <phase duration="19.9167273131" state="Gr"/>
      <phase duration="8.23268464496" state="yr"/>
      <phase duration="19.9167273131" state="rG"/>
      <phase duration="8.23268464496" state="ry"/>
   </tlLogic>
   <tlLogic id="1252285105" offset="0" programID="0" type="static">
      <phase duration="9.18750338611" state="G"/>
      <phase duration="4.68839666118" state="y"/>
   </tlLogic>
   <tlLogic id="1252285107" offset="0" programID="0" type="static">
      <phase duration="30.4224222695" state="G"/>
      <phase duration="9.67316349884" state="y"/>
   </tlLogic>
   <tlLogic id="1252285137" offset="0" programID="0" type="static">
      <phase duration="11.3673023918" state="Gr"/>
      <phase duration="6.49846804775" state="yr"/>
      <phase duration="11.3673023918" state="rG"/>
      <phase duration="6.49846804775" state="ry"/>
   </tlLogic>
   <tlLogic id="1252285140" offset="0" programID="0" type="static">
      <phase duration="22.2086653367" state="Gr"/>
      <phase duration="6.41293119585" state="yr"/>
      <phase duration="22.2086653367" state="rG"/>
      <phase duration="6.41293119585" state="ry"/>
   </tlLogic>
   <tlLogic id="1264255381" offset="0" programID="0" type="static">
      <phase duration="28.0157150087" state="GGGrrrrrr"/>
      <phase duration="7.0533643168" state="yyyrrrrrr"/>
      <phase duration="28.0157150087" state="rrrGGGrrr"/>
      <phase duration="7.0533643168" state="rrryyyrrr"/>
      <phase duration="28.0157150087" state="rrrrrrGGG"/>
      <phase duration="7.0533643168" state="rrrrrryyy"/>
   </tlLogic>
   <tlLogic id="1271504738" offset="0" programID="0" type="static">
      <phase duration="30.5690388559" state="Gr"/>
      <phase duration="9.62226173963" state="yr"/>
      <phase duration="30.5690388559" state="rG"/>
      <phase duration="9.62226173963" state="ry"/>
   </tlLogic>
   <tlLogic id="1271504757" offset="0" programID="0" type="static">
      <phase duration="22.2287800811" state="GGrrr"/>
      <phase duration="6.09872594341" state="yyrrr"/>
      <phase duration="22.2287800811" state="rrGrr"/>
      <phase duration="6.09872594341" state="rryrr"/>
      <phase duration="22.2287800811" state="rrrGG"/>
      <phase duration="6.09872594341" state="rrryy"/>
   </tlLogic>
   <tlLogic id="1271504758" offset="0" programID="0" type="static">
      <phase duration="19.4083936521" state="G"/>
      <phase duration="6.5601016483" state="y"/>
   </tlLogic>
   <tlLogic id="1271504763" offset="0" programID="0" type="static">
      <phase duration="9.04164843391" state="G"/>
      <phase duration="4.08661733093" state="y"/>
   </tlLogic>
   <tlLogic id="1271504768" offset="0" programID="0" type="static">
      <phase duration="16.059648702" state="Gr"/>
      <phase duration="6.88910002543" state="yr"/>
      <phase duration="16.059648702" state="rG"/>
      <phase duration="6.88910002543" state="ry"/>
   </tlLogic>
   <tlLogic id="1271504773" offset="0" programID="0" type="static">
      <phase duration="19.3490141889" state="GGrrr"/>
      <phase duration="9.83211910769" state="yyrrr"/>
      <phase duration="19.3490141889" state="rrGrr"/>
      <phase duration="9.83211910769" state="rryrr"/>
      <phase duration="19.3490141889" state="rrrGG"/>
      <phase duration="9.83211910769" state="rrryy"/>
   </tlLogic>
   <tlLogic id="1271504781" offset="0" programID="0" type="static">
      <phase duration="26.6429213538" state="GGrrr"/>
      <phase duration="7.8651946735" state="yyrrr"/>
      <phase duration="26.6429213538" state="rrGrr"/>
      <phase duration="7.8651946735" state="rryrr"/>
      <phase duration="26.6429213538" state="rrrGG"/>
      <phase duration="7.8651946735" state="rrryy"/>
   </tlLogic>
   <tlLogic id="1271504783" offset="0" programID="0" type="static">
      <phase duration="10.2117836729" state="Gr"/>
      <phase duration="5.25661901194" state="yr"/>
      <phase duration="10.2117836729" state="rG"/>
      <phase duration="5.25661901194" state="ry"/>
   </tlLogic>
   <tlLogic id="1271504795" offset="0" programID="0" type="static">
      <phase duration="34.8237194677" state="G"/>
      <phase duration="8.62476424021" state="y"/>
   </tlLogic>
   <tlLogic id="1271504797" offset="0" programID="0" type="static">
      <phase duration="37.7277506026" state="Gr"/>
      <phase duration="5.10857336967" state="yr"/>
      <phase duration="37.7277506026" state="rG"/>
      <phase duration="5.10857336967" state="ry"/>
   </tlLogic>
   <tlLogic id="1271504801" offset="0" programID="0" type="static">
      <phase duration="24.2047148138" state="G"/>
      <phase duration="2.12160820374" state="y"/>
   </tlLogic>
   <tlLogic id="1271504803" offset="0" programID="0" type="static">
      <phase duration="18.445333924" state="G"/>
      <phase duration="8.87316008725" state="y"/>
   </tlLogic>
   <tlLogic id="1271504812" offset="0" programID="0" type="static">
      <phase duration="16.1961895977" state="G"/>
      <phase duration="5.78707381765" state="y"/>
   </tlLogic>
   <tlLogic id="1271504815" offset="0" programID="0" type="static">
      <phase duration="17.9815369864" state="Gr"/>
      <phase duration="6.25498227582" state="yr"/>
      <phase duration="17.9815369864" state="rG"/>
      <phase duration="6.25498227582" state="ry"/>
   </tlLogic>
   <tlLogic id="1271504819" offset="0" programID="0" type="static">
      <phase duration="10.3755000593" state="Gr"/>
      <phase duration="9.08136766023" state="yr"/>
      <phase duration="10.3755000593" state="rG"/>
      <phase duration="9.08136766023" state="ry"/>
   </tlLogic>
   <tlLogic id="1271504822" offset="0" programID="0" type="static">
      <phase duration="23.5191448358" state="G"/>
      <phase duration="3.22979585371" state="y"/>
   </tlLogic>
   <tlLogic id="1271504824" offset="0" programID="0" type="static">
      <phase duration="15.4878407459" state="G"/>
      <phase duration="3.920007918" state="y"/>
   </tlLogic>
   <tlLogic id="1271504827" offset="0" programID="0" type="static">
      <phase duration="19.9953272121" state="Gr"/>
      <phase duration="7.62854093166" state="yr"/>
      <phase duration="19.9953272121" state="rG"/>
      <phase duration="7.62854093166" state="ry"/>
   </tlLogic>
   <tlLogic id="1271504830" offset="0" programID="0" type="static">
      <phase duration="19.4654496789" state="GGrrr"/>
      <phase duration="7.75075446938" state="yyrrr"/>
      <phase duration="19.4654496789" state="rrGrr"/>
      <phase duration="7.75075446938" state="rryrr"/>
      <phase duration="19.4654496789" state="rrrGG"/>
      <phase duration="7.75075446938" state="rrryy"/>
   </tlLogic>
   <tlLogic id="1271504831" offset="0" programID="0" type="static">
      <phase duration="18.9620737042" state="G"/>
      <phase duration="1.88913500341" state="y"/>
   </tlLogic>
   <tlLogic id="1271504832" offset="0" programID="0" type="static">
      <phase duration="30.2984170385" state="Gr"/>
      <phase duration="6.21293569252" state="yr"/>
      <phase duration="30.2984170385" state="rG"/>
      <phase duration="6.21293569252" state="ry"/>
   </tlLogic>
   <tlLogic id="1271504838" offset="0" programID="0" type="static">
      <phase duration="19.3235084117" state="GGrrr"/>
      <phase duration="4.95332624304" state="yyrrr"/>
      <phase duration="19.3235084117" state="rrGGr"/>
      <phase duration="4.95332624304" state="rryyr"/>
      <phase duration="19.3235084117" state="rrrrG"/>
      <phase duration="4.95332624304" state="rrrry"/>
   </tlLogic>
   <tlLogic id="1271504841" offset="0" programID="0" type="static">
      <phase duration="36.017234803" state="G"/>
      <phase duration="7.96335627425" state="y"/>
   </tlLogic>
   <tlLogic id="1271504842" offset="0" programID="0" type="static">
      <phase duration="3.38093752305" state="G"/>
      <phase duration="4.80223475609" state="y"/>
   </tlLogic>
   <tlLogic id="1271504844" offset="0" programID="0" type="static">
      <phase duration="21.634020679" state="G"/>
      <phase duration="7.90049428538" state="y"/>
   </tlLogic>
   <tlLogic id="1271504850" offset="0" programID="0" type="static">
      <phase duration="31.8265809409" state="Gr"/>
      <phase duration="8.72252683197" state="yr"/>
      <phase duration="31.8265809409" state="rG"/>
      <phase duration="8.72252683197" state="ry"/>
   </tlLogic>
   <tlLogic id="1271504852" offset="0" programID="0" type="static">
      <phase duration="17.5744519059" state="G"/>
      <phase duration="7.22365978027" state="y"/>
   </tlLogic>
   <tlLogic id="1271504855" offset="0" programID="0" type="static">
      <phase duration="9.08730656006" state="Gr"/>
      <phase duration="8.72335052319" state="yr"/>
      <phase duration="9.08730656006" state="rG"/>
      <phase duration="8.72335052319" state="ry"/>
   </tlLogic>
   <tlLogic id="1271504861" offset="0" programID="0" type="static">
      <phase duration="32.1995398717" state="G"/>
      <phase duration="7.7164665727" state="y"/>
   </tlLogic>
   <tlLogic id="1271504867" offset="0" programID="0" type="static">
      <phase duration="33.6287465134" state="G"/>
      <phase duration="5.67373882392" state="y"/>
   </tlLogic>
   <tlLogic id="1271504873" offset="0" programID="0" type="static">
      <phase duration="13.6393488648" state="GGrrr"/>
      <phase duration="7.81302391044" state="yyrrr"/>
      <phase duration="13.6393488648" state="rrGrr"/>
      <phase duration="7.81302391044" state="rryrr"/>
      <phase duration="13.6393488648" state="rrrGG"/>
      <phase duration="7.81302391044" state="rrryy"/>
   </tlLogic>
   <tlLogic id="1271504875" offset="0" programID="0" type="static">
      <phase duration="34.0015167246" state="G"/>
      <phase duration="9.80719957142" state="y"/>
   </tlLogic>
   <tlLogic id="1271504876" offset="0" programID="0" type="static">
      <phase duration="21.8132891801" state="G"/>
      <phase duration="8.51022682038" state="y"/>
   </tlLogic>
   <tlLogic id="1271504881" offset="0" programID="0" type="static">
      <phase duration="12.9145192778" state="GGrrr"/>
      <phase duration="8.05759897737" state="yyrrr"/>
      <phase duration="12.9145192778" state="rrGrr"/>
      <phase duration="8.05759897737" state="rryrr"/>
      <phase duration="12.9145192778" state="rrrGG"/>
      <phase duration="8.05759897737" state="rrryy"/>
   </tlLogic>
   <tlLogic id="1271504883" offset="0" programID="0" type="static">
      <phase duration="24.4832231281" state="GGrrr"/>
      <phase duration="9.07405695979" state="yyrrr"/>
      <phase duration="24.4832231281" state="rrGrr"/>
      <phase duration="9.07405695979" state="rryrr"/>
      <phase duration="24.4832231281" state="rrrGG"/>
      <phase duration="9.07405695979" state="rrryy"/>
   </tlLogic>
   <tlLogic id="1271504884" offset="0" programID="0" type="static">
      <phase duration="14.0876605001" state="G"/>
      <phase duration="6.83198350703" state="y"/>
   </tlLogic>
   <tlLogic id="1271504887" offset="0" programID="0" type="static">
      <phase duration="35.217411767" state="G"/>
      <phase duration="7.09869071457" state="y"/>
   </tlLogic>
   <tlLogic id="1271504888" offset="0" programID="0" type="static">
      <phase duration="33.1144490375" state="G"/>
      <phase duration="7.77283886483" state="y"/>
   </tlLogic>
   <tlLogic id="1271504889" offset="0" programID="0" type="static">
      <phase duration="20.6826486861" state="Gr"/>
      <phase duration="6.21342894403" state="yr"/>
      <phase duration="20.6826486861" state="rG"/>
      <phase duration="6.21342894403" state="ry"/>
   </tlLogic>
   <tlLogic id="1271504891" offset="0" programID="0" type="static">
      <phase duration="14.0501947514" state="G"/>
      <phase duration="9.95472392109" state="y"/>
   </tlLogic>
   <tlLogic id="1271504893" offset="0" programID="0" type="static">
      <phase duration="5.22644984832" state="GGrrr"/>
      <phase duration="8.43366979005" state="yyrrr"/>
      <phase duration="5.22644984832" state="rrGrr"/>
      <phase duration="8.43366979005" state="rryrr"/>
      <phase duration="5.22644984832" state="rrrGG"/>
      <phase duration="8.43366979005" state="rrryy"/>
   </tlLogic>
   <tlLogic id="1271504899" offset="0" programID="0" type="static">
      <phase duration="22.847394016" state="G"/>
      <phase duration="7.61257239687" state="y"/>
   </tlLogic>
   <tlLogic id="1271504905" offset="0" programID="0" type="static">
      <phase duration="17.5669793748" state="G"/>
      <phase duration="8.20487139613" state="y"/>
   </tlLogic>
   <tlLogic id="1271504907" offset="0" programID="0" type="static">
      <phase duration="35.8317829269" state="G"/>
      <phase duration="7.85385445751" state="y"/>
   </tlLogic>
   <tlLogic id="1271504908" offset="0" programID="0" type="static">
      <phase duration="23.971214462" state="G"/>
      <phase duration="6.24286985978" state="y"/>
   </tlLogic>
   <tlLogic id="1271504913" offset="0" programID="0" type="static">
      <phase duration="37.7443127639" state="GGrrr"/>
      <phase duration="5.54398149941" state="yyrrr"/>
      <phase duration="37.7443127639" state="rrGGr"/>
      <phase duration="5.54398149941" state="rryyr"/>
      <phase duration="37.7443127639" state="rrrrG"/>
      <phase duration="5.54398149941" state="rrrry"/>
   </tlLogic>
   <tlLogic id="1299369678" offset="0" programID="0" type="static">
      <phase duration="34.370968451" state="G"/>
      <phase duration="8.72310791526" state="y"/>
   </tlLogic>
   <tlLogic id="1299369686" offset="0" programID="0" type="static">
      <phase duration="20.3261655791" state="G"/>
      <phase duration="1.81540777273" state="y"/>
   </tlLogic>
   <tlLogic id="1299369689" offset="0" programID="0" type="static">
      <phase duration="12.3814806443" state="GGrrr"/>
      <phase duration="8.94608669488" state="yyrrr"/>
      <phase duration="12.3814806443" state="rrGrr"/>
      <phase duration="8.94608669488" state="rryrr"/>
      <phase duration="12.3814806443" state="rrrGG"/>
      <phase duration="8.94608669488" state="rrryy"/>
   </tlLogic>
   <tlLogic id="1299369691" offset="0" programID="0" type="static">
      <phase duration="12.0722336649" state="Gr"/>
      <phase duration="6.96182979248" state="yr"/>
      <phase duration="12.0722336649" state="rG"/>
      <phase duration="6.96182979248" state="ry"/>
   </tlLogic>
   <tlLogic id="1299369697" offset="0" programID="0" type="static">
      <phase duration="30.2046911726" state="G"/>
      <phase duration="4.88901604858" state="y"/>
   </tlLogic>
   <tlLogic id="1299369701" offset="0" programID="0" type="static">
      <phase duration="27.2713013057" state="GGrrr"/>
      <phase duration="8.33227272439" state="yyrrr"/>
      <phase duration="27.2713013057" state="rrGrr"/>
      <phase duration="8.33227272439" state="rryrr"/>
      <phase duration="27.2713013057" state="rrrGG"/>
      <phase duration="8.33227272439" state="rrryy"/>
   </tlLogic>
   <tlLogic id="1312440659" offset="0" programID="0" type="static">
      <phase duration="31.9754258678" state="GGrrr"/>
      <phase duration="7.95122509215" state="yyrrr"/>
      <phase duration="31.9754258678" state="rrGrr"/>
      <phase duration="7.95122509215" state="rryrr"/>
      <phase duration="31.9754258678" state="rrrGG"/>
      <phase duration="7.95122509215" state="rrryy"/>
   </tlLogic>
   <tlLogic id="1312440715" offset="0" programID="0" type="static">
      <phase duration="17.7000077685" state="Gr"/>
      <phase duration="8.33500737482" state="yr"/>
      <phase duration="17.7000077685" state="rG"/>
      <phase duration="8.33500737482" state="ry"/>
   </tlLogic>
   <tlLogic id="1312812204" offset="0" programID="0" type="static">
      <phase duration="26.4722956734" state="G"/>
      <phase duration="5.04335497031" state="y"/>
   </tlLogic>
   <tlLogic id="1353566368" offset="0" programID="0" type="static">
      <phase duration="11.0054745647" state="G"/>
      <phase duration="3.88333560083" state="y"/>
   </tlLogic>
   <tlLogic id="1353566371" offset="0" programID="0" type="static">
      <phase duration="14.110612429" state="G"/>
      <phase duration="6.37172088716" state="y"/>
   </tlLogic>
   <tlLogic id="1366801174" offset="0" programID="0" type="static">
      <phase duration="25.5991214621" state="G"/>
      <phase duration="8.30192291329" state="y"/>
   </tlLogic>
   <tlLogic id="1366801194" offset="0" programID="0" type="static"/>
   <tlLogic id="1366801200" offset="0" programID="0" type="static">
      <phase duration="10.6248575903" state="Gr"/>
      <phase duration="5.30193559625" state="yr"/>
      <phase duration="10.6248575903" state="rG"/>
      <phase duration="5.30193559625" state="ry"/>
   </tlLogic>
   <tlLogic id="1366801204" offset="0" programID="0" type="static">
      <phase duration="14.5642138171" state="G"/>
      <phase duration="3.76198669008" state="y"/>
   </tlLogic>
   <tlLogic id="1366801262" offset="0" programID="0" type="static">
      <phase duration="29.0931857657" state="G"/>
      <phase duration="7.69875583877" state="y"/>
   </tlLogic>
   <tlLogic id="1492679675" offset="0" programID="0" type="static">
      <phase duration="12.7214790584" state="Gr"/>
      <phase duration="9.00962041494" state="yr"/>
      <phase duration="12.7214790584" state="rG"/>
      <phase duration="9.00962041494" state="ry"/>
   </tlLogic>
   <tlLogic id="1492679678" offset="0" programID="0" type="static">
      <phase duration="21.6959161096" state="Gr"/>
      <phase duration="7.07719482292" state="yr"/>
      <phase duration="21.6959161096" state="rG"/>
      <phase duration="7.07719482292" state="ry"/>
   </tlLogic>
   <tlLogic id="1492679726" offset="0" programID="0" type="static">
      <phase duration="18.8680331419" state="G"/>
      <phase duration="2.57394528428" state="y"/>
   </tlLogic>
   <tlLogic id="1492679729" offset="0" programID="0" type="static">
      <phase duration="33.5905961236" state="G"/>
      <phase duration="5.08392077324" state="y"/>
   </tlLogic>
   <tlLogic id="1492679731" offset="0" programID="0" type="static">
      <phase duration="23.2032751832" state="Gr"/>
      <phase duration="4.49971185161" state="yr"/>
      <phase duration="23.2032751832" state="rG"/>
      <phase duration="4.49971185161" state="ry"/>
   </tlLogic>
   <tlLogic id="1492679733" offset="0" programID="0" type="static">
      <phase duration="21.5971078838" state="Gr"/>
      <phase duration="5.6624998724" state="yr"/>
      <phase duration="21.5971078838" state="rG"/>
      <phase duration="5.6624998724" state="ry"/>
   </tlLogic>
   <tlLogic id="1492679738" offset="0" programID="0" type="static">
      <phase duration="17.9875156002" state="G"/>
      <phase duration="7.89312469419" state="y"/>
   </tlLogic>